


                                     +
                                   + + +
                                   + + +
                                   + + +
                             +     + + +     +
                           + + +   + + +   + + +
                           + + +   + + +   + + +
                           + + +   + + +   + + +
                     +     + + +   + + +   + + +     +
                   + + +   + + +   + + +   + + +   + + +
                   + + +   + + +   + + +   + + +   + + +
                   + + +   + + +   + + +   + + +   + + +
             +     + + +   + + +   + + +   + + +   + + +     +
           + + +   + + +   + + +   + + +   + + +   + + +   + + +
           + + +   + + +   + + +   + + +   + + +   + + +   + + +
           + + +   + + +   + + +   + + +   + + +   + + +   + + +
           + + +   + + +   + + +   + + +   + + +   + + +   + + +
           + + +   + + +   + + +   + + +   + + +   + + +   + + +
           + + +   + + +   + + +   + + +   + + +   + + +   + + +
           + + +   + + +   + + +   + + +   + + +   + + +   + + +
           + + +   + + +   + + +   + + +   + + +   + + +   + + +
             +     + + +   + + +   + + +   + + +   + + +     +
                   + + +   + + +   + + +   + + +   + + +
                   + + +   + + +   + + +   + + +   + + +
                   + + +   + + +   + + +   + + +   + + +
                     +       +     + + +     +       +
                                   + + +
                                   + + +
                                   + + +
 ASPENTECH                         + + +
                                   + + +
 FLOWSHEET SIMULATION              + + +
 FOR THE PROCESS INDUSTRIES        + + +
                                     +


                                                                        TM
 AAAAA   SSSSS   PPPPP   EEEEE   NN    N   PPPPP   L       U   U   SSSSS
 A   A   S       P   P   E       N N   N   P   P   L       U   U   S    
 AAAAA   SSSSS   PPPPP   EEEEE   N   N N   PPPPP   L       U   U   SSSSS
 A   A       S   P       E       N    NN   P       L       U   U       S
 A   A   SSSSS   P       EEEEE   N     N   P       LLLLL   UUUUU   SSSSS

 ASPEN PLUS IS A TRADEMARK OF           HOTLINE:
 ASPEN TECHNOLOGY, INC.                 U.S.A. 888/996-7100
 781/221-6400                           EUROPE (44) 1189-226555

 PLATFORM: WINDOWS                                       MARCH 17, 2023      
 VERSION: 34.0   Build 109                               FRIDAY      
 INSTALLATION:                                           6:15:24 P.M.        

 THIS COPY OF ASPEN PLUS LICENSED TO  
                             


      ASPEN PLUS (R) IS A PROPRIETARY PRODUCT OF ASPEN TECHNOLOGY, INC.
      (ASPENTECH), AND MAY BE USED ONLY UNDER AGREEMENT WITH ASPENTECH.
      RESTRICTED RIGHTS LEGEND:  USE, REPRODUCTION, OR DISCLOSURE BY THE
      U.S. GOVERNMENT IS SUBJECT TO RESTRICTIONS SET FORTH IN 
      (i) FAR 52.227-14, Alt. III, (ii) FAR 52.227-19, (iii) DFARS 
      252.227-7013(c)(1)(ii), or (iv) THE ACCOMPANYING LICENSE AGREEMENT,
      AS APPLICABLE. FOR PURPOSES OF THE FAR, THIS SOFTWARE SHALL BE DEEMED
      TO BE "UNPUBLISHED" AND LICENSED WITH DISCLOSURE PROHIBITIONS.
      CONTRACTOR/SUBCONTRACTOR: ASPEN TECHNOLOGY, INC. 20 CROSBY DRIVE,
      BEDFORD, MA 01730.
 *** INPUT SUMMARY ***

 >>CURRENT RUN

   ORIGINAL RUN                           MARCH 17, 2023      
   6:15:24 P.M.                           FRIDAY      
   INPUT FILE: _4725tpj.inm
   RUN ID : _4725tpj
          1    ;
          2    ;Input file created by Aspen Plus Rel. 34.0 at 18:15:24 Fri Mar 17, 2023
          3    ;Directory C:\ProgramData\AspenTech\Aspen Plus V8.8  Runid EB
          4    ;
          5
          6
          7    DYNAMICS
          8        DYNAMICS RESULTS=ON
          9
         10    IN-UNITS SI ENTHALPY-FLO=kW PRESSURE=bar PDROP=bar
         11
         12    DEF-STREAMS CONVEN ALL
         13
         14    MODEL-OPTION
         15
         16    DATABANKS 'APV88 PURE32' / 'APV88 AQUEOUS' / 'APV88 SOLIDS' /  &
         17            'APV88 INORGANIC' / 'APEOSV88 AP-EOS' / NOASPENPCD
         18
         19    PROP-SOURCES 'APV88 PURE32' / 'APV88 AQUEOUS' / 'APV88 SOLIDS' &
         20             / 'APV88 INORGANIC' / 'APEOSV88 AP-EOS'
         21
         22    COMPONENTS
         23        ETHANE C2H6 /
         24        ETHYLENE C2H4 /
         25        BENZENE C6H6 /
         26        EB C8H10-4 /
         27        DEB C10H14-8
         28
         29    SOLVE
         30        RUN-MODE MODE=SIM
         31
         32    FLOWSHEET
         33        BLOCK CSTR IN=BENIN ETHYIN OUT=CSTR1-OT
         34        BLOCK PUMP1 IN=FFB OUT=S2
         35        BLOCK PUMP2 IN=CSTR1-OT OUT=S7
         36        BLOCK B4 IN=S2 OUT=BENIN
         37        BLOCK B5 IN=FFE OUT=ETHYIN
         38        BLOCK B6 IN=S7 OUT=S8
         39        BLOCK CSTR2 IN=S8 OUT=CSTR2-OT
         40        BLOCK PUMP3 IN=CSTR2-OT OUT=S3
         41        BLOCK B3 IN=S3 OUT=C1-IN
         42        BLOCK C1 IN=C1-IN OUT=C1-TOP C1-BOT
         43
         44    PROPERTIES CHAO-SEA
         45
         46    STREAM FFB
         47        SUBSTREAM MIXED TEMP=298.15 PRES=1.000000000  &
         48            MOLE-FLOW=.0277777777
         49        MOLE-FRAC BENZENE 1.
         50
         51    STREAM FFE
         52        SUBSTREAM MIXED TEMP=298.15 PRES=25.00000000  &
         53            MOLE-FLOW=.0292388888
         54        MOLE-FRAC ETHANE 0.05 / ETHYLENE 0.95
         55
         56    BLOCK C1 RADFRAC
         57        PARAM NSTAGE=11 ALGORITHM=STANDARD MAXOL=25 DAMPING=NONE
         58        COL-CONFIG CONDENSER=PARTIAL-V
         59        FEEDS C1-IN 5 ON-STAGE
         60        PRODUCTS C1-TOP 1 V / C1-BOT 11 L
         61        P-SPEC 1 8.000000000
         62        COL-SPECS MOLE-D=1.48611111E-3 MOLE-RR=0.9
         63        SPEC 1 TEMP 321.1500000 STAGE=1
         64        VARY 1 MOLE-D 2.77777778E-4 5.55555556E-3
         65
         66    BLOCK CSTR RCSTR
         67        PARAM VOL=200. TEMP=423.15 PRES=20.00000000 NPHASE=1  &
         68            PHASE=L
         69        BLOCK-OPTION FREE-WATER=NO
         70        REACTIONS RXN-IDS=R-1
         71
         72    BLOCK CSTR2 RCSTR
         73        PARAM VOL=200. TEMP=421.15 PRES=20.00000000 NPHASE=1  &
         74            PHASE=L
         75        BLOCK-OPTION FREE-WATER=NO
         76        REACTIONS RXN-IDS=R-1
         77
         78    BLOCK PUMP1 PUMP
         79        PARAM PRES=25.00000000
         80
         81    BLOCK PUMP2 PUMP
         82        PARAM DELP=10.00000000
         83
         84    BLOCK PUMP3 PUMP
         85        PARAM PRES=25.00000000
         86
         87    BLOCK B3 VALVE
         88        PARAM P-OUT=8.000000000
         89
         90    BLOCK B4 VALVE
         91        PARAM P-OUT=20.00000000
         92
         93    BLOCK B5 VALVE
         94        PARAM P-OUT=20.00000000
         95
         96    BLOCK B6 VALVE
         97        PARAM P-OUT=20.00000000
         98
         99    EO-CONV-OPTI
        100
        101    STREAM-REPOR MOLEFLOW MOLEFRAC
        102
        103    REACTIONS R-1 POWERLAW
        104        REAC-DATA 1
        105        REAC-DATA 2
        106        REAC-DATA 3
        107        RATE-CON 1 PRE-EXP=1528000. ACT-ENERGY=7.11756000E+7
        108        RATE-CON 2 PRE-EXP=27780000. ACT-ENERGY=8.37360000E+7
        109        RATE-CON 3 PRE-EXP=1000. ACT-ENERGY=6.28020000E+7
        110        STOIC 1 MIXED ETHYLENE -1. / BENZENE -1. / EB 1.
        111        STOIC 2 MIXED ETHYLENE -1. / EB -1. / DEB 1.
        112        STOIC 3 MIXED DEB -1. / BENZENE -1. / EB 2.
        113        POWLAW-EXP 1 MIXED ETHYLENE 1. / MIXED BENZENE 1.
        114        POWLAW-EXP 2 MIXED ETHYLENE 1. / MIXED EB 1.
        115        POWLAW-EXP 3 MIXED DEB 1. / MIXED BENZENE 1.
        116    ;
        117    ;
        118    ;
        119    ;
        120    ;
 *** INPUT TRANSLATOR MESSAGES ***

  *** THIS RUN USES THE PROPERTIES ENTERPRISE DATABASE ***
      SQLLOCALDB.APEOSV88 : (DATAVERSION - 34.0.0.18)                         
      SQLLOCALDB.APV88 : (DATAVERSION - 34.0.0.27)                            
      SQLLOCALDB.FACTV88 : (DATAVERSION - 34.0.0.8)                           
      SQLLOCALDB.NISTV88 : (DATAVERSION - 34.0.0.27)                          
 
 

 PDF updated                                                                      TIME =      0.33

 *** CALCULATION TRACE ***


 *** FLOWSHEET ANALYSIS MESSAGES ***

 FLOWSHEET CONNECTIVITY BY STREAMS       

   STREAM     SOURCE     DEST           STREAM     SOURCE     DEST
   FFB        ----       PUMP1          FFE        ----       B5      
   CSTR1-OT   CSTR       PUMP2          S2         PUMP1      B4      
   S7         PUMP2      B6             BENIN      B4         CSTR    
   ETHYIN     B5         CSTR           S8         B6         CSTR2   
   CSTR2-OT   CSTR2      PUMP3          S3         PUMP3      B3      
   C1-IN      B3         C1             C1-TOP     C1         ----    
   C1-BOT     C1         ----                                         

 FLOWSHEET CONNECTIVITY BY BLOCKS        

   BLOCK        INLETS                         OUTLETS
   CSTR         BENIN ETHYIN                   CSTR1-OT                    
   PUMP1        FFB                            S2                          
   PUMP2        CSTR1-OT                       S7                          
   B4           S2                             BENIN                       
   B5           FFE                            ETHYIN                      
   B6           S7                             S8                          
   CSTR2        S8                             CSTR2-OT                    
   PUMP3        CSTR2-OT                       S3                          
   B3           S3                             C1-IN                       
   C1           C1-IN                          C1-TOP C1-BOT               

      COMPUTATION ORDER FOR THE FLOWSHEET IS:
      PUMP1 B5 B4 CSTR PUMP2 B6 CSTR2 PUMP3 B3 C1 

Calculations begin                                                              time      0.02


 SIMULATION CALCULATIONS BEGIN                                                    TIME =      0.02

      ENTHALPY CALCULATION FOR INLET STREAM FFB OF BLOCK PUMP1                    TIME =      0.02
      KODE = 2  NTRIAL =   1  T = 298.1500  P =  100000.      V =  0.00000      Q =  0.00000    

      UOS BLOCK PUMP1    MODEL: PUMP                                              TIME =      0.02
      VOL-FLOW   =  0.2488E-02 , DELTA P    =  0.2400E+07 , PUMP EFF   =  0.4044    
      FLUID PWR  =   5971.     , BRAKE PWR  =  0.1477E+05 , ELEC PWR   =  0.1477E+05

      ENTHALPY CALCULATION FOR INLET STREAM FFE OF BLOCK B5                       TIME =      0.02
      KODE = 2  NTRIAL =   1  T = 298.1500  P = 2.500000E+06  V =  1.00000      Q =  0.00000    

      UOS BLOCK B5       MODEL: VALVE                                             TIME =      0.02
      NO. TEMP ITER =    5     TEMP =  292.469    
      KODE = 1  NTRIAL =   2  T = 292.4689  P = 2.000000E+06  V =  1.00000      Q =  0.00000    
      OUTLET PRES =   0.2000E+07 PRES DROP =   0.5000E+06

      UOS BLOCK B4       MODEL: VALVE                                             TIME =      0.02
      NO. TEMP ITER =    6     TEMP =  301.399    
      KODE = 1  NTRIAL =   2  T = 301.3992  P = 2.000000E+06  V =  0.00000      Q =  0.00000    
      OUTLET PRES =   0.2000E+07 PRES DROP =   0.5000E+06

      UOS BLOCK CSTR     MODEL: RCSTR                                             TIME =      0.04
      KODE = 2   NO. TEMP ITER =    1     TEMP =  423.150    
      KPHASE =    2 KODE =    2 T =  423.150     P = 2.000000E+06 Q =-2.402708E+06
      REACTOR DUTY = -0.240271E+07  VOLUME =   200.000      RES TIME =   48497.7    
      REACTOR T =   423.150      P =  2.000000E+06  V =   0.00000    

      UOS BLOCK PUMP2    MODEL: PUMP                                              TIME =      0.04
      VOL-FLOW   =  0.4124E-02 , DELTA P    =  0.1000E+07 , PUMP EFF   =  0.4781    
      FLUID PWR  =   4124.     , BRAKE PWR  =   8625.     , ELEC PWR   =   8625.    

      UOS BLOCK B6       MODEL: VALVE                                             TIME =      0.04
      KODE = 1  NTRIAL =  13  T = 424.4288  P = 2.000000E+06  V = 2.935493E-04  Q =  0.00000    
      OUTLET PRES =   0.2000E+07 PRES DROP =   0.1000E+07

      UOS BLOCK CSTR2    MODEL: RCSTR                                             TIME =      0.04
      KODE = 2   NO. TEMP ITER =    1     TEMP =  421.150    
      KPHASE =    2 KODE =    2 T =  421.150     P = 2.000000E+06 Q = -31949.6    
      REACTOR DUTY =  -31949.6      VOLUME =   200.000      RES TIME =   48851.5    
      REACTOR T =   421.150      P =  2.000000E+06  V =   0.00000    

      UOS BLOCK PUMP3    MODEL: PUMP                                              TIME =      0.04
      VOL-FLOW   =  0.4094E-02 , DELTA P    =  0.5000E+06 , PUMP EFF   =  0.4771    
      FLUID PWR  =   2047.     , BRAKE PWR  =   4290.     , ELEC PWR   =   4290.    

      UOS BLOCK B3       MODEL: VALVE                                             TIME =      0.04
      KODE = 1  NTRIAL =  10  T = 419.9618  P =  800000.      V = 4.127833E-02  Q =  0.00000    
      OUTLET PRES =   0.8000E+06 PRES DROP =   0.1700E+07

      UOS BLOCK C1       MODEL: RADFRAC                                           TIME =      0.04

       Convergence iterations:
         OL   ML   IL     Err/Tol
          1    1    5      1680.6    
          2    1    3      532.30    
          3    8   28      138.44    
          4    3   10      109.61    
          5    4   13      7.4656    
          6    2    6     0.72203    

      RESULTS FOR MANIPULATED VARIABLES:
      VARIABLE     FINAL VALUE    LOWER BOUND    UPPER BOUND
         1         0.15430E-02    0.27778E-03    0.55556E-02

      GENERATING RESULTS FOR UOS BLOCK PUMP1    MODEL: PUMP                       TIME =      0.04
      KODE = 5  NTRIAL =   3  T = 298.1500  P =  15180.1      V =  0.00000      Q = -131.687    
      VOL-FLOW   =  0.2488E-02 , DELTA P    =  0.2400E+07 , PUMP EFF   =  0.4044    
      FLUID PWR  =   5971.     , BRAKE PWR  =  0.1477E+05 , ELEC PWR   =  0.1477E+05
      NPSH AVAIL =   97.26    

      GENERATING RESULTS FOR UOS BLOCK PUMP2    MODEL: PUMP                       TIME =      0.04
      KODE = 5  NTRIAL =   5  T = 423.1500  P = 1.972725E+06  V =  0.00000      Q = -43.4791    
      VOL-FLOW   =  0.4124E-02 , DELTA P    =  0.1000E+07 , PUMP EFF   =  0.4781    
      FLUID PWR  =   4124.     , BRAKE PWR  =   8625.     , ELEC PWR   =   8625.    
      NPSH AVAIL =   37.58    

      GENERATING RESULTS FOR UOS BLOCK PUMP3    MODEL: PUMP                       TIME =      0.04
      KODE = 5  NTRIAL =   5  T = 421.1500  P = 1.772197E+06  V =  0.00000      Q = -369.254    
      VOL-FLOW   =  0.4094E-02 , DELTA P    =  0.5000E+06 , PUMP EFF   =  0.4771    
      FLUID PWR  =   2047.     , BRAKE PWR  =   4290.     , ELEC PWR   =   4290.    
      NPSH AVAIL =   311.6    

 Report Writer entered                                                            Time =      0.04

 Results generated                                                                Time =      0.07
<reset scope>
<reset scope>
<reset scope>
<reset scope>
<reset scope>
<reset scope>
<reset scope>
<reset scope>
<reset scope>
<reset scope>
<reset scope>
<reset scope>
<reset scope>
<reset scope>
<reset scope>
<reset scope>
<reset scope>
<reset scope>
<reset scope>
<reset scope>
<reset scope>
<reset scope>
<reset scope>
<reset scope>
<reset scope>
<reset scope>
<reset scope>
<reset scope>
<reset scope>
<reset scope>
<reset scope>
<reset scope>
<reset scope>
<reset scope>
<reset scope>
<reset scope>
<reset scope>
<reset scope>
<reset scope>
<reset scope>
<reset scope>
<reset scope>
<reset scope>
<reset scope>
<reset scope>
<reset scope>
<reset scope>
<reset scope>
<reset scope>
<reset scope>
<reset scope>
<reset scope>
<reset scope>
<reset scope>
<reset scope>
<reset scope>
<reset scope>
<reset scope>
<reset scope>
<reset scope>
<reset scope>
<reset scope>
<reset scope>
<reset scope>
<reset scope>
<reset scope>
<reset scope>
<reset scope>
<reset scope>
<reset scope>
<reset scope>
<reset scope>
<reset scope>
<reset scope>
<reset scope>
<reset scope>
<reset scope>
<reset scope>
<reset scope>
<reset scope>
<reset scope>
<reset scope>
<reset scope>
<reset scope>
<reset scope>
<reset scope>
<reset scope>
<reset scope>
<reset scope>
<reset scope>
<reset scope>
<reset scope>

RUN SAVED



 NO ERRORS OR WARNINGS GENERATED
<reset scope>


*** INPUT SPECIFICATION MESSAGES ***

 CHANGES WERE MADE TO IN-UNITS     03/17/2023   18:21:43:02 
 IN-UNITS SI MOLE-FLOW='kmol/hr' ENTHALPY-FLO=kW PRESSURE=bar  &
         PDROP=bar

 CHANGES WERE MADE TO BLOCK        C1       03/17/2023   18:21:43:02 
 BLOCK C1 RADFRAC
     PARAM NSTAGE=11 ALGORITHM=STANDARD MAXOL=25 DAMPING=NONE
     COL-CONFIG CONDENSER=PARTIAL-V
     FEEDS C1-IN 5 ON-STAGE
     PRODUCTS C1-TOP 1 V / C1-BOT 11 L
     P-SPEC 1 8.000000000
     COL-SPECS MOLE-D=5.350000000 MOLE-RR=0.9
     SPEC 1 TEMP 321.1500000 STAGE=1
     VARY 1 MOLE-D 1.000000000 20.00000000

 OUT-UNITS    IS  NEW 03/17/2023   18:21:43:02 
 OUT-UNITS SI MOLE-FLOW='kmol/hr' ENTHALPY-FLO=kW PRESSURE=bar  &
         PDROP=bar

 BLOCK        C2       IS NEW 03/17/2023   18:21:43:02 
 BLOCK C2 RADFRAC
     PARAM NSTAGE=24 ALGORITHM=STANDARD MAXOL=25 DAMPING=NONE
     COL-CONFIG CONDENSER=TOTAL
     FEEDS C2-IN 8 ON-STAGE
     PRODUCTS C2-TOP 1 L / C2-BOT 24 L
     P-SPEC 1 1.1
     COL-SPECS QN=350. MOLE-D=12.9

 BLOCK        PUMP4    IS NEW 03/17/2023   18:21:43:02 
 BLOCK PUMP4 PUMP
     PARAM DELP=25.

 BLOCK        PUMP5    IS NEW 03/17/2023   18:21:43:02 
 BLOCK PUMP5 PUMP
     PARAM DELP=10.

 BLOCK        B8       IS NEW 03/17/2023   18:21:43:02 
 BLOCK B8 VALVE
     PARAM P-OUT=5.

 BLOCK        B9       IS NEW 03/17/2023   18:21:43:02 
 BLOCK B9 VALVE
     PARAM P-OUT=1.1

 BLOCK        B13      IS NEW 03/17/2023   18:21:43:02 
 BLOCK B13 VALVE
     PARAM P-OUT=20.

 BLOCK        B14      IS NEW 03/17/2023   18:21:43:02 
 BLOCK B14 VALVE
     PARAM P-OUT=2.5

 RENAME       IS  NEW 03/17/2023   18:21:43:02 
 RENAME
     STREAM "S9" "C2-IN" / "S10" "C2-TOP" / "S11" "C2-BOT"

 FLOWSHEET    IS  NEW 03/17/2023   18:21:43:02 
 FLOWSHEET
     BLOCK CSTR IN=BENIN ETHYIN OUT=CSTR1-OT
     BLOCK PUMP1 IN=FFB OUT=S2
     BLOCK PUMP2 IN=CSTR1-OT OUT=S7
     BLOCK B4 IN=S2 OUT=BENIN
     BLOCK B5 IN=FFE OUT=ETHYIN
     BLOCK B6 IN=S7 OUT=S8
     BLOCK CSTR2 IN=S8 OUT=CSTR2-OT
     BLOCK PUMP3 IN=CSTR2-OT OUT=S3
     BLOCK B3 IN=S3 OUT=C1-IN
     BLOCK C1 IN=C1-IN OUT=C1-TOP C1-BOT
     BLOCK B8 IN=C1-TOP OUT=S12
     BLOCK B9 IN=C1-BOT OUT=C2-IN
     BLOCK C2 IN=C2-IN OUT=C2-TOP C2-BOT
     BLOCK PUMP4 IN=C2-TOP OUT=S13
     BLOCK PUMP5 IN=C2-BOT OUT=S15
     BLOCK B13 IN=S13 OUT=S14
     BLOCK B14 IN=S15 OUT=S16

 PDF updated                                                                      TIME =    378.24
 THIS COPY OF ASPEN PLUS LICENSED TO  
                             
 
 
 *** FLOWSHEET ANALYSIS MESSAGES ***

 FLOWSHEET CONNECTIVITY BY STREAMS       

   STREAM     SOURCE     DEST           STREAM     SOURCE     DEST
   FFB        ----       PUMP1          FFE        ----       B5      
   CSTR1-OT   CSTR       PUMP2          S2         PUMP1      B4      
   S7         PUMP2      B6             BENIN      B4         CSTR    
   ETHYIN     B5         CSTR           S8         B6         CSTR2   
   CSTR2-OT   CSTR2      PUMP3          S3         PUMP3      B3      
   C1-IN      B3         C1             C1-TOP     C1         B8      
   C1-BOT     C1         B9             S12        B8         ----    
   C2-IN      B9         C2             C2-TOP     C2         PUMP4   
   C2-BOT     C2         PUMP5          S13        PUMP4      B13     
   S15        PUMP5      B14            S14        B13        ----    
   S16        B14        ----                                         

 FLOWSHEET CONNECTIVITY BY BLOCKS        

   BLOCK        INLETS                         OUTLETS
   CSTR         BENIN ETHYIN                   CSTR1-OT                    
   PUMP1        FFB                            S2                          
   PUMP2        CSTR1-OT                       S7                          
   B4           S2                             BENIN                       
   B5           FFE                            ETHYIN                      
   B6           S7                             S8                          
   CSTR2        S8                             CSTR2-OT                    
   PUMP3        CSTR2-OT                       S3                          
   B3           S3                             C1-IN                       
   C1           C1-IN                          C1-TOP C1-BOT               
   B8           C1-TOP                         S12                         
   B9           C1-BOT                         C2-IN                       
   C2           C2-IN                          C2-TOP C2-BOT               
   PUMP4        C2-TOP                         S13                         
   PUMP5        C2-BOT                         S15                         
   B13          S13                            S14                         
   B14          S15                            S16                         

      COMPUTATION ORDER FOR THE FLOWSHEET IS:
      PUMP1 B5 B4 CSTR PUMP2 B6 CSTR2 PUMP3 B3 C1 B8 B9 C2 PUMP4 B13 
      PUMP5 B14 


Calculations begin                                                              time    378.25


      UOS BLOCK C1       MODEL: RADFRAC                                           TIME =    378.25

       Convergence iterations:
         OL   ML   IL     Err/Tol
          1    4   10     0.82721E-01

      RESULTS FOR MANIPULATED VARIABLES:
      VARIABLE     FINAL VALUE    LOWER BOUND    UPPER BOUND
         1         0.15430E-02    0.27778E-03    0.55556E-02

      UOS BLOCK B8       MODEL: VALVE                                             TIME =    378.25
      NO. TEMP ITER =    4     TEMP =  317.909    
      KODE = 1  NTRIAL =   4  T = 317.9092  P =  500000.      V =  1.00000      Q =  0.00000    
      OUTLET PRES =   0.5000E+06 PRES DROP =   0.3000E+06

      UOS BLOCK B9       MODEL: VALVE                                             TIME =    378.25
      KODE = 1  NTRIAL =   5  T = 415.7771  P =  110000.      V = 0.622679      Q =  0.00000    
      OUTLET PRES =   0.1100E+06 PRES DROP =   0.6900E+06

      UOS BLOCK C2       MODEL: RADFRAC                                           TIME =    378.25

       Convergence iterations:
         OL   ML   IL     Err/Tol
          1    1    6      148.89    
          2    1    4      12.041    
          3    1    3      4.6746    
          4    1    4      1.7772    
          5    1    3     0.43113    

      UOS BLOCK PUMP4    MODEL: PUMP                                              TIME =    378.25
      VOL-FLOW   =  0.3453E-03 , DELTA P    =  0.2500E+07 , PUMP EFF   =  0.2957    
      FLUID PWR  =   863.1     , BRAKE PWR  =   2919.     , ELEC PWR   =   2919.    

      UOS BLOCK B13      MODEL: VALVE                                             TIME =    378.25
      NO. TEMP ITER =    6     TEMP =  360.832    
      KODE = 1  NTRIAL =   3  T = 360.8324  P = 2.000000E+06  V =  0.00000      Q =  0.00000    
      OUTLET PRES =   0.2000E+07 PRES DROP =   0.6100E+06

      UOS BLOCK PUMP5    MODEL: PUMP                                              TIME =    378.25
      VOL-FLOW   =  0.3549E-02 , DELTA P    =  0.1000E+07 , PUMP EFF   =  0.4569    
      FLUID PWR  =   3549.     , BRAKE PWR  =   7769.     , ELEC PWR   =   7769.    

      UOS BLOCK B14      MODEL: VALVE                                             TIME =    378.25
      NO. TEMP ITER =    4     TEMP =  419.791    
      KODE = 1  NTRIAL =   2  T = 419.7911  P =  250000.      V =  0.00000      Q =  0.00000    
      OUTLET PRES =   0.2500E+06 PRES DROP =   0.8600E+06

      GENERATING RESULTS FOR UOS BLOCK PUMP4    MODEL: PUMP                       TIME =    378.25
      KODE = 5  NTRIAL =   4  T = 355.9321  P =  110000.      V =  0.00000      Q = 2.210587E-08
      VOL-FLOW   =  0.3453E-03 , DELTA P    =  0.2500E+07 , PUMP EFF   =  0.2957    
      FLUID PWR  =   863.1     , BRAKE PWR  =   2919.     , ELEC PWR   =   2919.    
      NPSH AVAIL =   0.000    

      GENERATING RESULTS FOR UOS BLOCK PUMP5    MODEL: PUMP                       TIME =    378.25
      KODE = 5  NTRIAL =   3  T = 418.5117  P =  110000.      V =  0.00000      Q = 6.841277E-06
      VOL-FLOW   =  0.3549E-02 , DELTA P    =  0.1000E+07 , PUMP EFF   =  0.4569    
      FLUID PWR  =   3549.     , BRAKE PWR  =   7769.     , ELEC PWR   =   7769.    
      NPSH AVAIL =   0.000    

 Report Writer entered                                                            Time =    378.25

 Results generated                                                                Time =    378.30

RUN SAVED



 NO ERRORS OR WARNINGS GENERATED


 NO ERRORS OR WARNINGS GENERATED


*** INPUT SPECIFICATION MESSAGES ***

 CHANGES WERE MADE TO BLOCK        C2       03/17/2023   18:23:31:76 
 BLOCK C2 RADFRAC
     PARAM NSTAGE=24 ALGORITHM=STANDARD MAXOL=25 DAMPING=NONE
     COL-CONFIG CONDENSER=TOTAL
     FEEDS C2-IN 8 ON-STAGE
     PRODUCTS C2-TOP 1 L / C2-BOT 24 L
     P-SPEC 1 1.1
     COL-SPECS QN=355. MOLE-D=12.9

 PDF updated                                                                      TIME =    486.91
 THIS COPY OF ASPEN PLUS LICENSED TO  
                             
 
 


Calculations begin                                                              time    486.92


      UOS BLOCK C2       MODEL: RADFRAC                                           TIME =    486.92

       Convergence iterations:
         OL   ML   IL     Err/Tol
          1    1    8      6.6194    
          2    1    5      1.6550    
          3    1    4     0.18977    

      UOS BLOCK PUMP4    MODEL: PUMP                                              TIME =    486.92
      VOL-FLOW   =  0.3452E-03 , DELTA P    =  0.2500E+07 , PUMP EFF   =  0.2957    
      FLUID PWR  =   862.9     , BRAKE PWR  =   2919.     , ELEC PWR   =   2919.    

      UOS BLOCK B13      MODEL: VALVE                                             TIME =    486.92
      NO. TEMP ITER =    6     TEMP =  360.818    
      KODE = 1  NTRIAL =   3  T = 360.8178  P = 2.000000E+06  V =  0.00000      Q =  0.00000    
      OUTLET PRES =   0.2000E+07 PRES DROP =   0.6100E+06

      UOS BLOCK PUMP5    MODEL: PUMP                                              TIME =    486.92
      VOL-FLOW   =  0.3550E-02 , DELTA P    =  0.1000E+07 , PUMP EFF   =  0.4569    
      FLUID PWR  =   3550.     , BRAKE PWR  =   7769.     , ELEC PWR   =   7769.    

      UOS BLOCK B14      MODEL: VALVE                                             TIME =    486.92
      NO. TEMP ITER =    4     TEMP =  419.801    
      KODE = 1  NTRIAL =   2  T = 419.8008  P =  250000.      V =  0.00000      Q =  0.00000    
      OUTLET PRES =   0.2500E+06 PRES DROP =   0.8600E+06

      GENERATING RESULTS FOR UOS BLOCK PUMP4    MODEL: PUMP                       TIME =    486.92
      KODE = 5  NTRIAL =   4  T = 355.9173  P =  110000.      V =  0.00000      Q = 6.487593E-09
      VOL-FLOW   =  0.3452E-03 , DELTA P    =  0.2500E+07 , PUMP EFF   =  0.2957    
      FLUID PWR  =   862.9     , BRAKE PWR  =   2919.     , ELEC PWR   =   2919.    
      NPSH AVAIL =   0.000    

      GENERATING RESULTS FOR UOS BLOCK PUMP5    MODEL: PUMP                       TIME =    486.92
      KODE = 5  NTRIAL =   3  T = 418.5214  P =  110000.      V =  0.00000      Q =-1.253071E-05
      VOL-FLOW   =  0.3550E-02 , DELTA P    =  0.1000E+07 , PUMP EFF   =  0.4569    
      FLUID PWR  =   3550.     , BRAKE PWR  =   7769.     , ELEC PWR   =   7769.    
      NPSH AVAIL =   0.000    

 Report Writer entered                                                            Time =    486.93

 Results generated                                                                Time =    486.98


*** INPUT SPECIFICATION MESSAGES ***

 CHANGES WERE MADE TO BLOCK        C2       03/17/2023   18:23:45:16 
 BLOCK C2 RADFRAC
     PARAM NSTAGE=24 ALGORITHM=STANDARD MAXOL=25 DAMPING=NONE
     COL-CONFIG CONDENSER=TOTAL
     FEEDS C2-IN 8 ON-STAGE
     PRODUCTS C2-TOP 1 L / C2-BOT 24 L
     P-SPEC 1 1.1
     COL-SPECS QN=360. MOLE-D=12.9

 PDF updated                                                                      TIME =    500.31
 THIS COPY OF ASPEN PLUS LICENSED TO  
                             
 
 


Calculations begin                                                              time    500.32


      UOS BLOCK C2       MODEL: RADFRAC                                           TIME =    500.32

       Convergence iterations:
         OL   ML   IL     Err/Tol
          1    1    8      5.7949    
          2    1    5      1.5134    
          3    1    4     0.18470    

      UOS BLOCK PUMP4    MODEL: PUMP                                              TIME =    500.32
      VOL-FLOW   =  0.3451E-03 , DELTA P    =  0.2500E+07 , PUMP EFF   =  0.2957    
      FLUID PWR  =   862.8     , BRAKE PWR  =   2918.     , ELEC PWR   =   2918.    

      UOS BLOCK B13      MODEL: VALVE                                             TIME =    500.32
      NO. TEMP ITER =    6     TEMP =  360.807    
      KODE = 1  NTRIAL =   3  T = 360.8072  P = 2.000000E+06  V =  0.00000      Q =  0.00000    
      OUTLET PRES =   0.2000E+07 PRES DROP =   0.6100E+06

      UOS BLOCK PUMP5    MODEL: PUMP                                              TIME =    500.32
      VOL-FLOW   =  0.3550E-02 , DELTA P    =  0.1000E+07 , PUMP EFF   =  0.4569    
      FLUID PWR  =   3550.     , BRAKE PWR  =   7769.     , ELEC PWR   =   7769.    

      UOS BLOCK B14      MODEL: VALVE                                             TIME =    500.32
      NO. TEMP ITER =    4     TEMP =  419.808    
      KODE = 1  NTRIAL =   2  T = 419.8078  P =  250000.      V =  0.00000      Q =  0.00000    
      OUTLET PRES =   0.2500E+06 PRES DROP =   0.8600E+06

      GENERATING RESULTS FOR UOS BLOCK PUMP4    MODEL: PUMP                       TIME =    500.32
      KODE = 5  NTRIAL =   4  T = 355.9066  P =  110000.      V =  0.00000      Q = 3.310541E-09
      VOL-FLOW   =  0.3451E-03 , DELTA P    =  0.2500E+07 , PUMP EFF   =  0.2957    
      FLUID PWR  =   862.8     , BRAKE PWR  =   2918.     , ELEC PWR   =   2918.    
      NPSH AVAIL =   0.000    

      GENERATING RESULTS FOR UOS BLOCK PUMP5    MODEL: PUMP                       TIME =    500.32
      KODE = 5  NTRIAL =   3  T = 418.5285  P =  110000.      V =  0.00000      Q =-8.517080E-06
      VOL-FLOW   =  0.3550E-02 , DELTA P    =  0.1000E+07 , PUMP EFF   =  0.4569    
      FLUID PWR  =   3550.     , BRAKE PWR  =   7769.     , ELEC PWR   =   7769.    
      NPSH AVAIL =   0.000    

 Report Writer entered                                                            Time =    500.33

 Results generated                                                                Time =    500.38


*** INPUT SPECIFICATION MESSAGES ***

 CHANGES WERE MADE TO BLOCK        C2       03/17/2023   18:24:01:63 
 BLOCK C2 RADFRAC
     PARAM NSTAGE=24 ALGORITHM=STANDARD MAXOL=25 DAMPING=NONE
     COL-CONFIG CONDENSER=TOTAL
     FEEDS C2-IN 8 ON-STAGE
     PRODUCTS C2-TOP 1 L / C2-BOT 24 L
     P-SPEC 1 1.1
     COL-SPECS QN=400. MOLE-D=12.9

 PDF updated                                                                      TIME =    516.79
 THIS COPY OF ASPEN PLUS LICENSED TO  
                             
 
 


Calculations begin                                                              time    516.80


      UOS BLOCK C2       MODEL: RADFRAC                                           TIME =    516.80

       Convergence iterations:
         OL   ML   IL     Err/Tol
          1    1    8      30.119    
          2    1    5      7.0842    
          3    1    4     0.87313    

      UOS BLOCK PUMP4    MODEL: PUMP                                              TIME =    516.80
      VOL-FLOW   =  0.3450E-03 , DELTA P    =  0.2500E+07 , PUMP EFF   =  0.2957    
      FLUID PWR  =   862.4     , BRAKE PWR  =   2917.     , ELEC PWR   =   2917.    

      UOS BLOCK B13      MODEL: VALVE                                             TIME =    516.80
      NO. TEMP ITER =    6     TEMP =  360.776    
      KODE = 1  NTRIAL =   2  T = 360.7756  P = 2.000000E+06  V =  0.00000      Q =  0.00000    
      OUTLET PRES =   0.2000E+07 PRES DROP =   0.6100E+06

      UOS BLOCK PUMP5    MODEL: PUMP                                              TIME =    516.80
      VOL-FLOW   =  0.3550E-02 , DELTA P    =  0.1000E+07 , PUMP EFF   =  0.4569    
      FLUID PWR  =   3550.     , BRAKE PWR  =   7769.     , ELEC PWR   =   7769.    

      UOS BLOCK B14      MODEL: VALVE                                             TIME =    516.80
      NO. TEMP ITER =    4     TEMP =  419.829    
      KODE = 1  NTRIAL =   2  T = 419.8289  P =  250000.      V =  0.00000      Q =  0.00000    
      OUTLET PRES =   0.2500E+06 PRES DROP =   0.8600E+06

      GENERATING RESULTS FOR UOS BLOCK PUMP4    MODEL: PUMP                       TIME =    516.80
      KODE = 5  NTRIAL =   4  T = 355.8746  P =  110000.      V =  0.00000      Q = 4.084781E-09
      VOL-FLOW   =  0.3450E-03 , DELTA P    =  0.2500E+07 , PUMP EFF   =  0.2957    
      FLUID PWR  =   862.4     , BRAKE PWR  =   2917.     , ELEC PWR   =   2917.    
      NPSH AVAIL =   0.000    

      GENERATING RESULTS FOR UOS BLOCK PUMP5    MODEL: PUMP                       TIME =    516.80
      KODE = 5  NTRIAL =   3  T = 418.5496  P =  110000.      V =  0.00000      Q =-1.906423E-05
      VOL-FLOW   =  0.3550E-02 , DELTA P    =  0.1000E+07 , PUMP EFF   =  0.4569    
      FLUID PWR  =   3550.     , BRAKE PWR  =   7769.     , ELEC PWR   =   7769.    
      NPSH AVAIL =   0.000    

 Report Writer entered                                                            Time =    516.80

 Results generated                                                                Time =    516.85


*** INPUT SPECIFICATION MESSAGES ***

 CHANGES WERE MADE TO BLOCK        C2       03/17/2023   18:25:13:52 
 BLOCK C2 RADFRAC
     PARAM NSTAGE=24 ALGORITHM=STANDARD MAXOL=25 DAMPING=NONE
     COL-CONFIG CONDENSER=TOTAL
     FEEDS C2-IN 8 ON-STAGE
     PRODUCTS C2-TOP 1 L / C2-BOT 24 L
     P-SPEC 1 1.1
     COL-SPECS QN=400. MOLE-D=12.9
     SPEC 1 MOLE-FRAC 0.9994463 COMPS=BENZENE BASE-COMPS=ETHANE  &
         ETHYLENE BENZENE EB DEB STREAMS=C2-TOP
     VARY 1 MOLE-D 1. 150.

 PDF updated                                                                      TIME =    588.66
 THIS COPY OF ASPEN PLUS LICENSED TO  
                             
 
 


Calculations begin                                                              time    588.67


      UOS BLOCK C2       MODEL: RADFRAC                                           TIME =    588.67

       Convergence iterations:
         OL   ML   IL     Err/Tol
          1    5   18     0.43717E-01

      RESULTS FOR MANIPULATED VARIABLES:
      VARIABLE     FINAL VALUE    LOWER BOUND    UPPER BOUND
         1         0.35831E-02    0.27778E-03    0.41667E-01

      UOS BLOCK PUMP4    MODEL: PUMP                                              TIME =    588.67
      VOL-FLOW   =  0.3449E-03 , DELTA P    =  0.2500E+07 , PUMP EFF   =  0.2957    
      FLUID PWR  =   862.4     , BRAKE PWR  =   2917.     , ELEC PWR   =   2917.    

      UOS BLOCK B13      MODEL: VALVE                                             TIME =    588.67
      NO. TEMP ITER =    6     TEMP =  360.776    
      KODE = 1  NTRIAL =   2  T = 360.7756  P = 2.000000E+06  V =  0.00000      Q =  0.00000    
      OUTLET PRES =   0.2000E+07 PRES DROP =   0.6100E+06

      UOS BLOCK PUMP5    MODEL: PUMP                                              TIME =    588.67
      VOL-FLOW   =  0.3550E-02 , DELTA P    =  0.1000E+07 , PUMP EFF   =  0.4569    
      FLUID PWR  =   3550.     , BRAKE PWR  =   7769.     , ELEC PWR   =   7769.    

      UOS BLOCK B14      MODEL: VALVE                                             TIME =    588.67
      NO. TEMP ITER =    4     TEMP =  419.828    
      KODE = 1  NTRIAL =   2  T = 419.8277  P =  250000.      V =  0.00000      Q =  0.00000    
      OUTLET PRES =   0.2500E+06 PRES DROP =   0.8600E+06

      GENERATING RESULTS FOR UOS BLOCK PUMP4    MODEL: PUMP                       TIME =    588.67
      KODE = 5  NTRIAL =   4  T = 355.8746  P =  110000.      V =  0.00000      Q =-1.067853E-10
      VOL-FLOW   =  0.3449E-03 , DELTA P    =  0.2500E+07 , PUMP EFF   =  0.2957    
      FLUID PWR  =   862.4     , BRAKE PWR  =   2917.     , ELEC PWR   =   2917.    
      NPSH AVAIL =   0.000    

      GENERATING RESULTS FOR UOS BLOCK PUMP5    MODEL: PUMP                       TIME =    588.67
      KODE = 5  NTRIAL =   3  T = 418.5484  P =  110000.      V =  0.00000      Q = 3.822013E-05
      VOL-FLOW   =  0.3550E-02 , DELTA P    =  0.1000E+07 , PUMP EFF   =  0.4569    
      FLUID PWR  =   3550.     , BRAKE PWR  =   7769.     , ELEC PWR   =   7769.    
      NPSH AVAIL =   0.000    

 Report Writer entered                                                            Time =    588.67

 Results generated                                                                Time =    588.74
<reset scope>
<reset scope>
<reset scope>
<reset scope>
<reset scope>
<reset scope>
<reset scope>
<reset scope>
<reset scope>
<reset scope>
<reset scope>
<reset scope>
<reset scope>
<reset scope>
<reset scope>
<reset scope>
<reset scope>
<reset scope>
<reset scope>
<reset scope>
<reset scope>
<reset scope>
<reset scope>
<reset scope>

RUN SAVED



 NO ERRORS OR WARNINGS GENERATED


 NO ERRORS OR WARNINGS GENERATED


*** INPUT SPECIFICATION MESSAGES ***

 BLOCK        C3       IS NEW 03/17/2023   18:29:43:39 
 BLOCK C3 RADFRAC
     PARAM NSTAGE=29 ALGORITHM=STANDARD MAXOL=25 DAMPING=NONE
     COL-CONFIG CONDENSER=TOTAL
     FEEDS S16 6 ON-STAGE
     PRODUCTS S17 1 L / S18 29 L
     P-SPEC 1 1.1
     COL-SPECS D:F=0.87 MOLE-RR=1.

 BLOCK        B16      IS NEW 03/17/2023   18:29:43:39 
 BLOCK B16 PUMP
     PARAM DELP=10.

 BLOCK        B17      IS NEW 03/17/2023   18:29:43:39 
 BLOCK B17 PUMP
     PARAM PRES=25.

 BLOCK        B18      IS NEW 03/17/2023   18:29:43:39 
 BLOCK B18 VALVE
     PARAM P-DROP=8.

 BLOCK        B19      IS NEW 03/17/2023   18:29:43:39 
 BLOCK B19 VALVE
     PARAM P-OUT=20.

 FLOWSHEET    IS  NEW 03/17/2023   18:29:43:39 
 FLOWSHEET
     BLOCK CSTR IN=BENIN ETHYIN OUT=CSTR1-OT
     BLOCK PUMP1 IN=FFB OUT=S2
     BLOCK PUMP2 IN=CSTR1-OT OUT=S7
     BLOCK B4 IN=S2 OUT=BENIN
     BLOCK B5 IN=FFE OUT=ETHYIN
     BLOCK B6 IN=S7 OUT=S8
     BLOCK CSTR2 IN=S8 OUT=CSTR2-OT
     BLOCK PUMP3 IN=CSTR2-OT OUT=S3
     BLOCK B3 IN=S3 OUT=C1-IN
     BLOCK C1 IN=C1-IN OUT=C1-TOP C1-BOT
     BLOCK B8 IN=C1-TOP OUT=S12
     BLOCK B9 IN=C1-BOT OUT=C2-IN
     BLOCK C2 IN=C2-IN OUT=C2-TOP C2-BOT
     BLOCK PUMP4 IN=C2-TOP OUT=S13
     BLOCK PUMP5 IN=C2-BOT OUT=S15
     BLOCK B13 IN=S13 OUT=S14
     BLOCK B14 IN=S15 OUT=S16
     BLOCK C3 IN=S16 OUT=S17 S18
     BLOCK B16 IN=S17 OUT=S19
     BLOCK B17 IN=S18 OUT=S21
     BLOCK B18 IN=S19 OUT=S20
     BLOCK B19 IN=S21 OUT=S22

 PDF updated                                                                      TIME =    858.56
 THIS COPY OF ASPEN PLUS LICENSED TO  
                             
 
 
 *** FLOWSHEET ANALYSIS MESSAGES ***

 FLOWSHEET CONNECTIVITY BY STREAMS       

   STREAM     SOURCE     DEST           STREAM     SOURCE     DEST
   FFB        ----       PUMP1          FFE        ----       B5      
   CSTR1-OT   CSTR       PUMP2          S2         PUMP1      B4      
   S7         PUMP2      B6             BENIN      B4         CSTR    
   ETHYIN     B5         CSTR           S8         B6         CSTR2   
   CSTR2-OT   CSTR2      PUMP3          S3         PUMP3      B3      
   C1-IN      B3         C1             C1-TOP     C1         B8      
   C1-BOT     C1         B9             S12        B8         ----    
   C2-IN      B9         C2             C2-TOP     C2         PUMP4   
   C2-BOT     C2         PUMP5          S13        PUMP4      B13     
   S15        PUMP5      B14            S14        B13        ----    
   S16        B14        C3             S17        C3         B16     
   S18        C3         B17            S19        B16        B18     
   S21        B17        B19            S20        B18        ----    
   S22        B19        ----                                         

 FLOWSHEET CONNECTIVITY BY BLOCKS        

   BLOCK        INLETS                         OUTLETS
   CSTR         BENIN ETHYIN                   CSTR1-OT                    
   PUMP1        FFB                            S2                          
   PUMP2        CSTR1-OT                       S7                          
   B4           S2                             BENIN                       
   B5           FFE                            ETHYIN                      
   B6           S7                             S8                          
   CSTR2        S8                             CSTR2-OT                    
   PUMP3        CSTR2-OT                       S3                          
   B3           S3                             C1-IN                       
   C1           C1-IN                          C1-TOP C1-BOT               
   B8           C1-TOP                         S12                         
   B9           C1-BOT                         C2-IN                       
   C2           C2-IN                          C2-TOP C2-BOT               
   PUMP4        C2-TOP                         S13                         
   PUMP5        C2-BOT                         S15                         
   B13          S13                            S14                         
   B14          S15                            S16                         
   C3           S16                            S17 S18                     
   B16          S17                            S19                         
   B17          S18                            S21                         
   B18          S19                            S20                         
   B19          S21                            S22                         

      COMPUTATION ORDER FOR THE FLOWSHEET IS:
      PUMP1 B5 B4 CSTR PUMP2 B6 CSTR2 PUMP3 B3 C1 B8 B9 C2 PUMP4 B13 
      PUMP5 B14 C3 B16 B18 B17 B19 


Calculations begin                                                              time    858.58


      UOS BLOCK C3       MODEL: RADFRAC                                           TIME =    858.58

       Convergence iterations:
         OL   ML   IL     Err/Tol
          1    1    4      73.593    
          2    1    3      6.5558    
          3    1    3     0.33932    

      UOS BLOCK B16      MODEL: PUMP                                              TIME =    858.58
      VOL-FLOW   =  0.2970E-02 , DELTA P    =  0.1000E+07 , PUMP EFF   =  0.4309    
      FLUID PWR  =   2970.     , BRAKE PWR  =   6892.     , ELEC PWR   =   6892.    

      UOS BLOCK B18      MODEL: VALVE                                             TIME =    858.58
      NO. TEMP ITER =    4     TEMP =  415.894    
      KODE = 1  NTRIAL =   2  T = 415.8941  P =  310000.      V =  0.00000      Q =  0.00000    
      OUTLET PRES =   0.3100E+06 PRES DROP =   0.8000E+06

      UOS BLOCK B17      MODEL: PUMP                                              TIME =    858.58
      VOL-FLOW   =  0.5900E-03 , DELTA P    =  0.2390E+07 , PUMP EFF   =  0.2957    
      FLUID PWR  =   1410.     , BRAKE PWR  =   4769.     , ELEC PWR   =   4769.    

      UOS BLOCK B19      MODEL: VALVE                                             TIME =    858.58
      NO. TEMP ITER =    6     TEMP =  467.183    
      KODE = 1  NTRIAL =   1  T = 467.1830  P = 2.000000E+06  V =  0.00000      Q =  0.00000    
      OUTLET PRES =   0.2000E+07 PRES DROP =   0.5000E+06

      GENERATING RESULTS FOR UOS BLOCK B16      MODEL: PUMP                       TIME =    858.58
      KODE = 5  NTRIAL =   3  T = 414.5460  P =  110000.      V =  0.00000      Q = 1.412097E-05
      VOL-FLOW   =  0.2970E-02 , DELTA P    =  0.1000E+07 , PUMP EFF   =  0.4309    
      FLUID PWR  =   2970.     , BRAKE PWR  =   6892.     , ELEC PWR   =   6892.    
      NPSH AVAIL =   0.000    

      GENERATING RESULTS FOR UOS BLOCK B17      MODEL: PUMP                       TIME =    858.58
      KODE = 5  NTRIAL =   3  T = 462.8791  P =  110000.      V =  0.00000      Q = 9.913078E-06
      VOL-FLOW   =  0.5900E-03 , DELTA P    =  0.2390E+07 , PUMP EFF   =  0.2957    
      FLUID PWR  =   1410.     , BRAKE PWR  =   4769.     , ELEC PWR   =   4769.    
      NPSH AVAIL =   0.000    

 Report Writer entered                                                            Time =    858.59

 Results generated                                                                Time =    858.66
<reset scope>
<reset scope>
<reset scope>
<reset scope>


*** INPUT SPECIFICATION MESSAGES ***

 CHANGES WERE MADE TO RENAME       03/17/2023   18:30:05:96 
 RENAME
     STREAM "S17" "C3-TOP" / "S18" "C3-BOT"

 CHANGES WERE MADE TO BLOCK        C3       03/17/2023   18:30:05:96 
 BLOCK C3 RADFRAC
     PARAM NSTAGE=29 ALGORITHM=STANDARD MAXOL=25 DAMPING=NONE
     COL-CONFIG CONDENSER=TOTAL
     FEEDS S16 6 ON-STAGE
     PRODUCTS C3-TOP 1 L / C3-BOT 29 L
     P-SPEC 1 1.1
     COL-SPECS D:F=0.85 MOLE-RR=1.

 PDF updated                                                                      TIME =    881.14
 THIS COPY OF ASPEN PLUS LICENSED TO  
                             
 
 


Calculations begin                                                              time    881.14


      UOS BLOCK C3       MODEL: RADFRAC                                           TIME =    881.14

       Convergence iterations:
         OL   ML   IL     Err/Tol
          1    1    6      69.967    
          2    1    3      19.912    
          3    1    2      1.4480    
          4    1    3     0.18877    

      UOS BLOCK B16      MODEL: PUMP                                              TIME =    881.15
      VOL-FLOW   =  0.2881E-02 , DELTA P    =  0.1000E+07 , PUMP EFF   =  0.4264    
      FLUID PWR  =   2881.     , BRAKE PWR  =   6756.     , ELEC PWR   =   6756.    

      UOS BLOCK B18      MODEL: VALVE                                             TIME =    881.15
      NO. TEMP ITER =    4     TEMP =  415.227    
      KODE = 1  NTRIAL =   2  T = 415.2272  P =  310000.      V =  0.00000      Q =  0.00000    
      OUTLET PRES =   0.3100E+06 PRES DROP =   0.8000E+06

      UOS BLOCK B17      MODEL: PUMP                                              TIME =    881.15
      VOL-FLOW   =  0.6808E-03 , DELTA P    =  0.2390E+07 , PUMP EFF   =  0.2957    
      FLUID PWR  =   1627.     , BRAKE PWR  =   5503.     , ELEC PWR   =   5503.    

      UOS BLOCK B19      MODEL: VALVE                                             TIME =    881.15
      NO. TEMP ITER =    6     TEMP =  467.183    
      KODE = 1  NTRIAL =   1  T = 467.1830  P = 2.000000E+06  V =  0.00000      Q =  0.00000    
      OUTLET PRES =   0.2000E+07 PRES DROP =   0.5000E+06

      GENERATING RESULTS FOR UOS BLOCK B16      MODEL: PUMP                       TIME =    881.15
      KODE = 5  NTRIAL =   3  T = 413.8634  P =  110000.      V =  0.00000      Q = 1.605126E-05
      VOL-FLOW   =  0.2881E-02 , DELTA P    =  0.1000E+07 , PUMP EFF   =  0.4264    
      FLUID PWR  =   2881.     , BRAKE PWR  =   6756.     , ELEC PWR   =   6756.    
      NPSH AVAIL =   0.000    

      GENERATING RESULTS FOR UOS BLOCK B17      MODEL: PUMP                       TIME =    881.15
      KODE = 5  NTRIAL =   3  T = 462.8791  P =  110000.      V =  0.00000      Q = 9.857687E-06
      VOL-FLOW   =  0.6808E-03 , DELTA P    =  0.2390E+07 , PUMP EFF   =  0.2957    
      FLUID PWR  =   1627.     , BRAKE PWR  =   5503.     , ELEC PWR   =   5503.    
      NPSH AVAIL =   0.000    

 Report Writer entered                                                            Time =    881.15

 Results generated                                                                Time =    881.21
<reset scope>
<reset scope>
<reset scope>
<reset scope>
<reset scope>
<reset scope>
<reset scope>
<reset scope>
<reset scope>
<reset scope>
<reset scope>
<reset scope>
<reset scope>
<reset scope>
<reset scope>
<reset scope>
<reset scope>
<reset scope>
<reset scope>
<reset scope>
<reset scope>
<reset scope>
<reset scope>
<reset scope>
<reset scope>
<reset scope>
<reset scope>
<reset scope>
<reset scope>
<reset scope>
<reset scope>
<reset scope>
<reset scope>
<reset scope>
<reset scope>
<reset scope>
<reset scope>
<reset scope>
<reset scope>
<reset scope>
<reset scope>
<reset scope>
<reset scope>
<reset scope>
<reset scope>
<reset scope>
<reset scope>
<reset scope>
<reset scope>
<reset scope>
<reset scope>
<reset scope>
<reset scope>
<reset scope>
<reset scope>
<reset scope>
<reset scope>
<reset scope>
<reset scope>
<reset scope>
<reset scope>
<reset scope>
<reset scope>
<reset scope>
<reset scope>
<reset scope>
<reset scope>
<reset scope>
<reset scope>
<reset scope>
<reset scope>
<reset scope>
<reset scope>
<reset scope>
<reset scope>
<reset scope>
<reset scope>
<reset scope>
<reset scope>
<reset scope>
<reset scope>
<reset scope>
<reset scope>
<reset scope>
<reset scope>
<reset scope>
<reset scope>
<reset scope>
<reset scope>
<reset scope>
<reset scope>
<reset scope>
<reset scope>
<reset scope>
<reset scope>
<reset scope>
<reset scope>
<reset scope>
<reset scope>
<reset scope>
<reset scope>
<reset scope>
<reset scope>
<reset scope>
<reset scope>
<reset scope>


*** INPUT SPECIFICATION MESSAGES ***

 BLOCK        B20      IS NEW 03/17/2023   18:34:23:67 
 BLOCK B20 MIXER
     PARAM

 FLOWSHEET    IS  NEW 03/17/2023   18:34:23:67 
 FLOWSHEET
     BLOCK CSTR IN=ETHYIN S23 OUT=CSTR1-OT
     BLOCK PUMP1 IN=FFB OUT=S2
     BLOCK PUMP2 IN=CSTR1-OT OUT=S7
     BLOCK B4 IN=S2 OUT=BENIN
     BLOCK B5 IN=FFE OUT=ETHYIN
     BLOCK B6 IN=S7 OUT=S8
     BLOCK CSTR2 IN=S8 OUT=CSTR2-OT
     BLOCK PUMP3 IN=CSTR2-OT OUT=S3
     BLOCK B3 IN=S3 OUT=C1-IN
     BLOCK C1 IN=C1-IN OUT=C1-TOP C1-BOT
     BLOCK B8 IN=C1-TOP OUT=S12
     BLOCK B9 IN=C1-BOT OUT=C2-IN
     BLOCK C2 IN=C2-IN OUT=C2-TOP C2-BOT
     BLOCK PUMP4 IN=C2-TOP OUT=S13
     BLOCK PUMP5 IN=C2-BOT OUT=S15
     BLOCK B13 IN=S13 OUT=S14
     BLOCK B14 IN=S15 OUT=S16
     BLOCK C3 IN=S16 OUT=C3-TOP C3-BOT
     BLOCK B16 IN=C3-TOP OUT=S19
     BLOCK B17 IN=C3-BOT OUT=S21
     BLOCK B18 IN=S19 OUT=S20
     BLOCK B19 IN=S21 OUT=S22
     BLOCK B20 IN=BENIN S14 OUT=S23

 PDF updated                                                                      TIME =   1138.82
 THIS COPY OF ASPEN PLUS LICENSED TO  
                             
 
 
 *** FLOWSHEET ANALYSIS MESSAGES ***

 FLOWSHEET CONNECTIVITY BY STREAMS       

   STREAM     SOURCE     DEST           STREAM     SOURCE     DEST
   FFB        ----       PUMP1          FFE        ----       B5      
   CSTR1-OT   CSTR       PUMP2          S2         PUMP1      B4      
   S7         PUMP2      B6             BENIN      B4         B20     
   ETHYIN     B5         CSTR           S8         B6         CSTR2   
   CSTR2-OT   CSTR2      PUMP3          S3         PUMP3      B3      
   C1-IN      B3         C1             C1-TOP     C1         B8      
   C1-BOT     C1         B9             S12        B8         ----    
   C2-IN      B9         C2             C2-TOP     C2         PUMP4   
   C2-BOT     C2         PUMP5          S13        PUMP4      B13     
   S15        PUMP5      B14            S14        B13        B20     
   S16        B14        C3             C3-TOP     C3         B16     
   C3-BOT     C3         B17            S19        B16        B18     
   S21        B17        B19            S20        B18        ----    
   S22        B19        ----           S23        B20        CSTR    

 FLOWSHEET CONNECTIVITY BY BLOCKS        

   BLOCK        INLETS                         OUTLETS
   CSTR         ETHYIN S23                     CSTR1-OT                    
   PUMP1        FFB                            S2                          
   PUMP2        CSTR1-OT                       S7                          
   B4           S2                             BENIN                       
   B5           FFE                            ETHYIN                      
   B6           S7                             S8                          
   CSTR2        S8                             CSTR2-OT                    
   PUMP3        CSTR2-OT                       S3                          
   B3           S3                             C1-IN                       
   C1           C1-IN                          C1-TOP C1-BOT               
   B8           C1-TOP                         S12                         
   B9           C1-BOT                         C2-IN                       
   C2           C2-IN                          C2-TOP C2-BOT               
   PUMP4        C2-TOP                         S13                         
   PUMP5        C2-BOT                         S15                         
   B13          S13                            S14                         
   B14          S15                            S16                         
   C3           S16                            C3-TOP C3-BOT               
   B16          C3-TOP                         S19                         
   B17          C3-BOT                         S21                         
   B18          S19                            S20                         
   B19          S21                            S22                         
   B20          BENIN S14                      S23                         

      BLOCK $OLVER01 (METHOD: WEGSTEIN) HAS BEEN DEFINED TO CONVERGE
               STREAMS: S23

      COMPUTATION ORDER FOR THE FLOWSHEET IS:
      PUMP1 B4 B5 
      $OLVER01 CSTR PUMP2 B6 CSTR2 PUMP3 B3 C1 B9 C2 PUMP4 B13 B20 
      (RETURN $OLVER01) 
      B8 PUMP5 B14 C3 B16 B18 B17 B19 


Calculations begin                                                              time   1138.82


      CONVERGENCE BLOCK $OLVER01  METHOD: WEGSTEIN                                TIME =   1138.82
      ITER   0 For Tear Streams: S23

      UOS BLOCK CSTR     MODEL: RCSTR                                             TIME =   1138.82
      KODE = 2   NO. TEMP ITER =    1     TEMP =  423.150    
      KPHASE =    2 KODE =    2 T =  423.150     P = 2.000000E+06 Q =  109747.    
      REACTOR DUTY =   109747.      VOLUME =   200.000      RES TIME =   51916.6    
      REACTOR T =   423.150      P =  2.000000E+06  V =   0.00000    

      UOS BLOCK PUMP2    MODEL: PUMP                                              TIME =   1138.82
      VOL-FLOW   =  0.3852E-02 , DELTA P    =  0.1000E+07 , PUMP EFF   =  0.4686    
      FLUID PWR  =   3852.     , BRAKE PWR  =   8222.     , ELEC PWR   =   8222.    

      UOS BLOCK B6       MODEL: VALVE                                             TIME =   1138.82
      NO. TEMP ITER =    6     TEMP =  369.424    
      KODE = 1  NTRIAL =   2  T = 369.4242  P = 2.000000E+06  V =  1.00000      Q =  0.00000    
      OUTLET PRES =   0.2000E+07 PRES DROP =   0.1000E+07

      UOS BLOCK CSTR2    MODEL: RCSTR                                             TIME =   1138.82
      KODE = 2   NO. TEMP ITER =    1     TEMP =  421.150    
      KPHASE =    2 KODE =    2 T =  421.150     P = 2.000000E+06 Q = -12001.3    
      REACTOR DUTY =  -11994.6      VOLUME =   200.000      RES TIME =   51916.4    
      REACTOR T =   421.150      P =  2.000000E+06  V =   0.00000    

  **  ERROR WHILE EXECUTING UNIT OPERATIONS BLOCK: "CSTR2" (MODEL: "RCSTR")     
                                                               (URE03.3)        
      M-BAL LOOP DID NOT CONVERGE IN 50 ITERATIONS. CHECK                       
      STOICHIOMETRY/MOLECULAR WEIGHTS.                                          

      UOS BLOCK PUMP3    MODEL: PUMP                                              TIME =   1138.84
      VOL-FLOW   =  0.3852E-02 , DELTA P    =  0.5000E+06 , PUMP EFF   =  0.4686    
      FLUID PWR  =   1926.     , BRAKE PWR  =   4111.     , ELEC PWR   =   4111.    

      UOS BLOCK B3       MODEL: VALVE                                             TIME =   1138.84
      NO. TEMP ITER =    6     TEMP =  356.785    
      KODE = 1  NTRIAL =   4  T = 356.7852  P =  800000.      V =  1.00000      Q =  0.00000    
      OUTLET PRES =   0.8000E+06 PRES DROP =   0.1700E+07

      UOS BLOCK C1       MODEL: RADFRAC                                           TIME =   1138.84

       Convergence iterations:
         OL   ML   IL     Err/Tol
          1    1   10      7164.6    
          2    1   10      5967.5    
          3    1    2      5127.7    

  *** SEVERE ERROR WHILE EXECUTING UNIT OPERATIONS BLOCK: "C1" (MODEL:          
      "RADFRAC")                                               (UDL03.3)        
      THE FOLLOWING STAGES DRIED UP (VAPOR OR LIQUID FLOW APPROACHES 0):        
        6   11                                                                  
      A LIMIT OF  0.10000E-04 * SUM OF FEEDS WAS IMPOSED ON THE FLOW RATES      
      OR A LIMIT OF  0.10000E-04 WAS IMPOSED ON THE STAGE V/L OR L/V RATIO.     

      RESULTS FOR MANIPULATED VARIABLES:
      VARIABLE     FINAL VALUE    LOWER BOUND    UPPER BOUND
         1         0.15430E-02    0.27778E-03    0.55556E-02

      UOS BLOCK B9       MODEL: VALVE                                             TIME =   1138.84
      KODE = 1  NTRIAL =  12  T = 184.9715  P =  110000.      V = 0.999998      Q =  0.00000    
      OUTLET PRES =   0.1100E+06 PRES DROP =   0.6900E+06

      UOS BLOCK C2       MODEL: RADFRAC                                           TIME =   1138.84

       Convergence iterations:
         OL   ML   IL     Err/Tol
          1    7   15      10283.    
          2    1    2      6407.2    
          3    1    2      4730.3    
          4    1    2      2425.9    
          5    1    2      1267.2    
          6    1    2      668.85    
          7    5   11      348.19    
          8    5   10      265.30    
          9    5   10      202.00    
         10    5   10      153.72    
         11    5   10      116.93    
         12    5   10      88.920    
         13    3    5      67.542    
         14    2    3      35.035    
         15    2    3      9.5301    
         16    2    3     0.93050    

  **  ERROR WHILE EXECUTING UNIT OPERATIONS BLOCK: "C2" (MODEL: "RADFRAC")      
                                                               (UDL03.5)        
      DESIGN SPEC IS NOT SATISFIED BECAUSE ONE OR MORE MANIPULATED              
      VARIABLE IS AT ITS BOUND.                                                 

      RESULTS FOR MANIPULATED VARIABLES:
      VARIABLE     FINAL VALUE    LOWER BOUND    UPPER BOUND
         1         0.27778E-03    0.27778E-03    0.41667E-01

      UOS BLOCK PUMP4    MODEL: PUMP                                              TIME =   1138.84
      VOL-FLOW   =  0.1372E-04 , DELTA P    =  0.2500E+07 , PUMP EFF   =  0.2957    
      FLUID PWR  =   34.30     , BRAKE PWR  =   116.0     , ELEC PWR   =   116.0    

      UOS BLOCK B13      MODEL: VALVE                                             TIME =   1138.84
      NO. TEMP ITER =    6     TEMP =  175.135    
      KODE = 1  NTRIAL =   2  T = 175.1346  P = 2.000000E+06  V =  0.00000      Q =  0.00000    
      OUTLET PRES =   0.2000E+07 PRES DROP =   0.6100E+06

      UOS BLOCK B20      MODEL: MIXER                                             TIME =   1138.84
      NO. TEMP ITER =    5     TEMP =  300.643    
      KODE = 1  NTRIAL =   5  T = 300.6428  P = 2.000000E+06  V =  0.00000      Q =  0.00000    

      CONVERGENCE BLOCK $OLVER01  METHOD: WEGSTEIN                                TIME =   1138.84
      ITER   1 For Tear Streams: S23

      --FLASH TEAR STREAM S23     
      NO. TEMP ITER =    5     TEMP =  300.643    
      KODE = 1  NTRIAL =   5  T = 300.6428  P = 2.000000E+06  V =  0.00000      Q =  0.00000    

  LOOP $OLVER01 ITER    1:   6 VARS NOT CONVERGED, MAX ERR/TOL     0.10000E+07    TIME =   1138.84

      UOS BLOCK CSTR     MODEL: RCSTR                                             TIME =   1138.84
      KODE = 2   NO. TEMP ITER =    1     TEMP =  423.150    
      KPHASE =    2 KODE =    2 T =  423.150     P = 2.000000E+06 Q =-2.583081E+06
      REACTOR DUTY = -0.253556E+07  VOLUME =   200.000      RES TIME =   47706.0    
      REACTOR T =   423.150      P =  2.000000E+06  V =   0.00000    

  **  ERROR WHILE EXECUTING UNIT OPERATIONS BLOCK: "CSTR" (MODEL: "RCSTR")      
                                                               (URE03.3)        
      M-BAL LOOP DID NOT CONVERGE IN 50 ITERATIONS. CHECK                       
      STOICHIOMETRY/MOLECULAR WEIGHTS.                                          


  **  ERROR WHILE EXECUTING UNIT OPERATIONS BLOCK: "CSTR" (MODEL: "RCSTR")      
                                                               (BALMAS.1)       
      BLOCK CSTR IS NOT IN MASS BALANCE:                                        
      MASS INLET FLOW = 0.30008240E+01, MASS OUTLET FLOW = 0.30537197E+01       
      RELATIVE DIFFERENCE = 0.17627078E-01                                      

      UOS BLOCK PUMP2    MODEL: PUMP                                              TIME =   1138.84
      VOL-FLOW   =  0.4192E-02 , DELTA P    =  0.1000E+07 , PUMP EFF   =  0.4804    
      FLUID PWR  =   4192.     , BRAKE PWR  =   8726.     , ELEC PWR   =   8726.    

      UOS BLOCK B6       MODEL: VALVE                                             TIME =   1138.84
      NO. TEMP ITER =    4     TEMP =  424.426    
      KODE = 1  NTRIAL =   3  T = 424.4265  P = 2.000000E+06  V =  0.00000      Q =  0.00000    
      OUTLET PRES =   0.2000E+07 PRES DROP =   0.1000E+07

      UOS BLOCK CSTR2    MODEL: RCSTR                                             TIME =   1138.84
      KODE = 2   NO. TEMP ITER =    1     TEMP =  421.150    
      KPHASE =    2 KODE =    2 T =  421.150     P = 2.000000E+06 Q = -24914.2    
      REACTOR DUTY =  -24914.2      VOLUME =   200.000      RES TIME =   47960.3    
      REACTOR T =   421.150      P =  2.000000E+06  V =   0.00000    

      UOS BLOCK PUMP3    MODEL: PUMP                                              TIME =   1138.84
      VOL-FLOW   =  0.4170E-02 , DELTA P    =  0.5000E+06 , PUMP EFF   =  0.4797    
      FLUID PWR  =   2085.     , BRAKE PWR  =   4347.     , ELEC PWR   =   4347.    

      UOS BLOCK B3       MODEL: VALVE                                             TIME =   1138.84
      KODE = 1  NTRIAL =  10  T = 420.2195  P =  800000.      V = 3.883126E-02  Q =  0.00000    
      OUTLET PRES =   0.8000E+06 PRES DROP =   0.1700E+07

      UOS BLOCK C1       MODEL: RADFRAC                                           TIME =   1138.84

       Convergence iterations:
         OL   ML   IL     Err/Tol
          1    1   10      7862.6    
          2    1    6      3012.2    
          3    1    4      769.12    
          4    4   15      262.48    
          5    3   10      100.34    
          6    3    9      38.554    
          7    2    5      13.816    
          8    2    4      2.3518    
          9    2    4     0.19017    

      RESULTS FOR MANIPULATED VARIABLES:
      VARIABLE     FINAL VALUE    LOWER BOUND    UPPER BOUND
         1         0.15418E-02    0.27778E-03    0.55556E-02

      UOS BLOCK B9       MODEL: VALVE                                             TIME =   1138.86
      KODE = 1  NTRIAL =   5  T = 419.8771  P =  110000.      V = 0.648579      Q =  0.00000    
      OUTLET PRES =   0.1100E+06 PRES DROP =   0.6900E+06

      UOS BLOCK C2       MODEL: RADFRAC                                           TIME =   1138.86

       Convergence iterations:
         OL   ML   IL     Err/Tol
          1    1   10      16898.    
          2    1   10     0.12748E+07
          3    1    8      49055.    
          4    1    4      8233.4    
          5    1    3      2574.8    
          6    1    2      17.263    
          7    8   48      47.469    
          8    5   23      79.045    
          9    7   55      488.12    
         10    3   20      211.35    
         11    7   43      111.22    
         12    2    9      54.867    
         13    5   19      14.989    
         14    3    8      14.857    
         15    3    7      2.4971    
         16    2    5      1.8146    
         17    2    5     0.25736    

      RESULTS FOR MANIPULATED VARIABLES:
      VARIABLE     FINAL VALUE    LOWER BOUND    UPPER BOUND
         1         0.21703E-02    0.27778E-03    0.41667E-01

      UOS BLOCK PUMP4    MODEL: PUMP                                              TIME =   1138.86
      VOL-FLOW   =  0.2088E-03 , DELTA P    =  0.2500E+07 , PUMP EFF   =  0.2957    
      FLUID PWR  =   522.1     , BRAKE PWR  =   1766.     , ELEC PWR   =   1766.    

      UOS BLOCK B13      MODEL: VALVE                                             TIME =   1138.86
      NO. TEMP ITER =    6     TEMP =  360.448    
      KODE = 1  NTRIAL =   2  T = 360.4479  P = 2.000000E+06  V =  0.00000      Q =  0.00000    
      OUTLET PRES =   0.2000E+07 PRES DROP =   0.6100E+06

      UOS BLOCK B20      MODEL: MIXER                                             TIME =   1138.86
      NO. TEMP ITER =    6     TEMP =  305.927    
      KODE = 1  NTRIAL =   2  T = 305.9274  P = 2.000000E+06  V =  0.00000      Q =  0.00000    

      CONVERGENCE BLOCK $OLVER01  METHOD: WEGSTEIN                                TIME =   1138.86
      ITER   2 For Tear Streams: S23

      --FLASH TEAR STREAM S23     
      NO. TEMP ITER =    6     TEMP =  305.927    
      KODE = 1  NTRIAL =   2  T = 305.9273  P = 2.000000E+06  V =  0.00000      Q =  0.00000    

  LOOP $OLVER01 ITER    2:   4 VARS NOT CONVERGED, MAX ERR/TOL     -10000.        TIME =   1138.86

      UOS BLOCK CSTR     MODEL: RCSTR                                             TIME =   1138.86
      KODE = 2   NO. TEMP ITER =    1     TEMP =  423.150    
      KPHASE =    2 KODE =    2 T =  423.150     P = 2.000000E+06 Q =-2.379500E+06
      REACTOR DUTY = -0.237950E+07  VOLUME =   200.000      RES TIME =   45710.3    
      REACTOR T =   423.150      P =  2.000000E+06  V =   0.00000    

      UOS BLOCK PUMP2    MODEL: PUMP                                              TIME =   1138.86
      VOL-FLOW   =  0.4375E-02 , DELTA P    =  0.1000E+07 , PUMP EFF   =  0.4864    
      FLUID PWR  =   4375.     , BRAKE PWR  =   8996.     , ELEC PWR   =   8996.    

      UOS BLOCK B6       MODEL: VALVE                                             TIME =   1138.86
      NO. TEMP ITER =    4     TEMP =  424.421    
      KODE = 1  NTRIAL =   3  T = 424.4213  P = 2.000000E+06  V =  0.00000      Q =  0.00000    
      OUTLET PRES =   0.2000E+07 PRES DROP =   0.1000E+07

      UOS BLOCK CSTR2    MODEL: RCSTR                                             TIME =   1138.86
      KODE = 2   NO. TEMP ITER =    1     TEMP =  421.150    
      KPHASE =    2 KODE =    2 T =  421.150     P = 2.000000E+06 Q = -32861.7    
      REACTOR DUTY =  -32861.7      VOLUME =   200.000      RES TIME =   46035.7    
      REACTOR T =   421.150      P =  2.000000E+06  V =   0.00000    

      UOS BLOCK PUMP3    MODEL: PUMP                                              TIME =   1138.86
      VOL-FLOW   =  0.4344E-02 , DELTA P    =  0.5000E+06 , PUMP EFF   =  0.4854    
      FLUID PWR  =   2172.     , BRAKE PWR  =   4475.     , ELEC PWR   =   4475.    

      UOS BLOCK B3       MODEL: VALVE                                             TIME =   1138.86
      KODE = 1  NTRIAL =  10  T = 419.9590  P =  800000.      V = 3.860995E-02  Q =  0.00000    
      OUTLET PRES =   0.8000E+06 PRES DROP =   0.1700E+07

      UOS BLOCK C1       MODEL: RADFRAC                                           TIME =   1138.86

       Convergence iterations:
         OL   ML   IL     Err/Tol
          1    4   14      88.472    
          2    3    7      4.1287    
          3    2    4     0.41633    

      RESULTS FOR MANIPULATED VARIABLES:
      VARIABLE     FINAL VALUE    LOWER BOUND    UPPER BOUND
         1         0.15434E-02    0.27778E-03    0.55556E-02

      UOS BLOCK B9       MODEL: VALVE                                             TIME =   1138.86
      KODE = 1  NTRIAL =   5  T = 411.4641  P =  110000.      V = 0.604577      Q =  0.00000    
      OUTLET PRES =   0.1100E+06 PRES DROP =   0.6900E+06

      UOS BLOCK C2       MODEL: RADFRAC                                           TIME =   1138.87

       Convergence iterations:
         OL   ML   IL     Err/Tol
          1    8   46      114.87    
          2    5   26      120.43    
          3    3   17      52.377    
          4    2    8      6.0992    
          5    2    7      1.3264    
          6    2    5     0.79091E-01

      RESULTS FOR MANIPULATED VARIABLES:
      VARIABLE     FINAL VALUE    LOWER BOUND    UPPER BOUND
         1         0.48349E-02    0.27778E-03    0.41667E-01

      UOS BLOCK PUMP4    MODEL: PUMP                                              TIME =   1138.87
      VOL-FLOW   =  0.4655E-03 , DELTA P    =  0.2500E+07 , PUMP EFF   =  0.2957    
      FLUID PWR  =   1164.     , BRAKE PWR  =   3936.     , ELEC PWR   =   3936.    

      UOS BLOCK B13      MODEL: VALVE                                             TIME =   1138.87
      NO. TEMP ITER =    6     TEMP =  360.776    
      KODE = 1  NTRIAL =   2  T = 360.7756  P = 2.000000E+06  V =  0.00000      Q =  0.00000    
      OUTLET PRES =   0.2000E+07 PRES DROP =   0.6100E+06

      UOS BLOCK B20      MODEL: MIXER                                             TIME =   1138.87
      NO. TEMP ITER =    6     TEMP =  310.670    
      KODE = 1  NTRIAL =   2  T = 310.6700  P = 2.000000E+06  V =  0.00000      Q =  0.00000    

      CONVERGENCE BLOCK $OLVER01  METHOD: WEGSTEIN                                TIME =   1138.87
      ITER   3 For Tear Streams: S23

      --FLASH TEAR STREAM S23     
      NO. TEMP ITER =    6     TEMP =  310.670    
      KODE = 1  NTRIAL =   2  T = 310.6700  P = 2.000000E+06  V =  0.00000      Q =  0.00000    

  LOOP $OLVER01 ITER    3:   4 VARS NOT CONVERGED, MAX ERR/TOL      12274.        TIME =   1138.87

      UOS BLOCK CSTR     MODEL: RCSTR                                             TIME =   1138.87
      KODE = 2   NO. TEMP ITER =    1     TEMP =  423.150    
      KPHASE =    2 KODE =    2 T =  423.150     P = 2.000000E+06 Q =-2.357867E+06
      REACTOR DUTY = -0.235787E+07  VOLUME =   200.000      RES TIME =   43098.0    
      REACTOR T =   423.150      P =  2.000000E+06  V =   0.00000    

      UOS BLOCK PUMP2    MODEL: PUMP                                              TIME =   1138.87
      VOL-FLOW   =  0.4641E-02 , DELTA P    =  0.1000E+07 , PUMP EFF   =  0.4945    
      FLUID PWR  =   4641.     , BRAKE PWR  =   9385.     , ELEC PWR   =   9385.    

      UOS BLOCK B6       MODEL: VALVE                                             TIME =   1138.87
      NO. TEMP ITER =    4     TEMP =  424.403    
      KODE = 1  NTRIAL =   3  T = 424.4034  P = 2.000000E+06  V =  0.00000      Q =  0.00000    
      OUTLET PRES =   0.2000E+07 PRES DROP =   0.1000E+07

      UOS BLOCK CSTR2    MODEL: RCSTR                                             TIME =   1138.87
      KODE = 2   NO. TEMP ITER =    1     TEMP =  421.150    
      KPHASE =    2 KODE =    2 T =  421.150     P = 2.000000E+06 Q = -33839.9    
      REACTOR DUTY =  -33839.9      VOLUME =   200.000      RES TIME =   43393.3    
      REACTOR T =   421.150      P =  2.000000E+06  V =   0.00000    

      UOS BLOCK PUMP3    MODEL: PUMP                                              TIME =   1138.87
      VOL-FLOW   =  0.4609E-02 , DELTA P    =  0.5000E+06 , PUMP EFF   =  0.4936    
      FLUID PWR  =   2305.     , BRAKE PWR  =   4669.     , ELEC PWR   =   4669.    

      UOS BLOCK B3       MODEL: VALVE                                             TIME =   1138.87
      KODE = 1  NTRIAL =  10  T = 419.9584  P =  800000.      V = 3.624550E-02  Q =  0.00000    
      OUTLET PRES =   0.8000E+06 PRES DROP =   0.1700E+07

      UOS BLOCK C1       MODEL: RADFRAC                                           TIME =   1138.87

       Convergence iterations:
         OL   ML   IL     Err/Tol
          1    4   12      31.144    
          2    3    7      1.4524    
          3    2    4     0.14495    

      RESULTS FOR MANIPULATED VARIABLES:
      VARIABLE     FINAL VALUE    LOWER BOUND    UPPER BOUND
         1         0.15437E-02    0.27778E-03    0.55556E-02

      UOS BLOCK B9       MODEL: VALVE                                             TIME =   1138.87
      KODE = 1  NTRIAL =   5  T = 407.5446  P =  110000.      V = 0.588381      Q =  0.00000    
      OUTLET PRES =   0.1100E+06 PRES DROP =   0.6900E+06

      UOS BLOCK C2       MODEL: RADFRAC                                           TIME =   1138.87

       Convergence iterations:
         OL   ML   IL     Err/Tol
          1    8   48      106.77    
          2    3   10      54.135    
          3    3    8      1.7388    
          4    3    5     0.13997    

      RESULTS FOR MANIPULATED VARIABLES:
      VARIABLE     FINAL VALUE    LOWER BOUND    UPPER BOUND
         1         0.62037E-02    0.27778E-03    0.41667E-01

      UOS BLOCK PUMP4    MODEL: PUMP                                              TIME =   1138.87
      VOL-FLOW   =  0.5972E-03 , DELTA P    =  0.2500E+07 , PUMP EFF   =  0.2957    
      FLUID PWR  =   1493.     , BRAKE PWR  =   5050.     , ELEC PWR   =   5050.    

      UOS BLOCK B13      MODEL: VALVE                                             TIME =   1138.87
      NO. TEMP ITER =    6     TEMP =  360.776    
      KODE = 1  NTRIAL =   2  T = 360.7756  P = 2.000000E+06  V =  0.00000      Q =  0.00000    
      OUTLET PRES =   0.2000E+07 PRES DROP =   0.6100E+06

      UOS BLOCK B20      MODEL: MIXER                                             TIME =   1138.87
      NO. TEMP ITER =    6     TEMP =  312.790    
      KODE = 1  NTRIAL =   2  T = 312.7897  P = 2.000000E+06  V =  0.00000      Q =  0.00000    

      CONVERGENCE BLOCK $OLVER01  METHOD: WEGSTEIN                                TIME =   1138.87
      ITER   4 For Tear Streams: S23

      --FLASH TEAR STREAM S23     
      NO. TEMP ITER =    6     TEMP =  314.520    
      KODE = 1  NTRIAL =   2  T = 314.5197  P = 2.000000E+06  V =  0.00000      Q =  0.00000    

  LOOP $OLVER01 ITER    4:   4 VARS NOT CONVERGED, MAX ERR/TOL      2833.2        TIME =   1138.87

      UOS BLOCK CSTR     MODEL: RCSTR                                             TIME =   1138.87
      KODE = 2   NO. TEMP ITER =    1     TEMP =  423.150    
      KPHASE =    2 KODE =    2 T =  423.150     P = 2.000000E+06 Q =-2.325954E+06
      REACTOR DUTY = -0.232595E+07  VOLUME =   200.000      RES TIME =   40263.8    
      REACTOR T =   423.150      P =  2.000000E+06  V =   0.00000    

      UOS BLOCK PUMP2    MODEL: PUMP                                              TIME =   1138.87
      VOL-FLOW   =  0.4967E-02 , DELTA P    =  0.1000E+07 , PUMP EFF   =  0.5038    
      FLUID PWR  =   4967.     , BRAKE PWR  =   9860.     , ELEC PWR   =   9860.    

      UOS BLOCK B6       MODEL: VALVE                                             TIME =   1138.87
      NO. TEMP ITER =    4     TEMP =  424.384    
      KODE = 1  NTRIAL =   3  T = 424.3835  P = 2.000000E+06  V =  0.00000      Q =  0.00000    
      OUTLET PRES =   0.2000E+07 PRES DROP =   0.1000E+07

      UOS BLOCK CSTR2    MODEL: RCSTR                                             TIME =   1138.87
      KODE = 2   NO. TEMP ITER =    1     TEMP =  421.150    
      KPHASE =    2 KODE =    2 T =  421.150     P = 2.000000E+06 Q = -35079.3    
      REACTOR DUTY =  -35079.3      VOLUME =   200.000      RES TIME =   40525.3    
      REACTOR T =   421.150      P =  2.000000E+06  V =   0.00000    

      UOS BLOCK PUMP3    MODEL: PUMP                                              TIME =   1138.87
      VOL-FLOW   =  0.4935E-02 , DELTA P    =  0.5000E+06 , PUMP EFF   =  0.5029    
      FLUID PWR  =   2468.     , BRAKE PWR  =   4907.     , ELEC PWR   =   4907.    

      UOS BLOCK B3       MODEL: VALVE                                             TIME =   1138.87
      KODE = 1  NTRIAL =  10  T = 419.9646  P =  800000.      V = 3.376655E-02  Q =  0.00000    
      OUTLET PRES =   0.8000E+06 PRES DROP =   0.1700E+07

      UOS BLOCK C1       MODEL: RADFRAC                                           TIME =   1138.87

       Convergence iterations:
         OL   ML   IL     Err/Tol
          1    4   12      31.848    
          2    3    7      1.4702    
          3    2    4     0.13928    

      RESULTS FOR MANIPULATED VARIABLES:
      VARIABLE     FINAL VALUE    LOWER BOUND    UPPER BOUND
         1         0.15440E-02    0.27778E-03    0.55556E-02

      UOS BLOCK B9       MODEL: VALVE                                             TIME =   1138.87
      KODE = 1  NTRIAL =   5  T = 403.3604  P =  110000.      V = 0.572496      Q =  0.00000    
      OUTLET PRES =   0.1100E+06 PRES DROP =   0.6900E+06

      UOS BLOCK C2       MODEL: RADFRAC                                           TIME =   1138.87

       Convergence iterations:
         OL   ML   IL     Err/Tol
          1    8   46      98.844    
[...]
      KODE = 1  NTRIAL =   2  T = 418.6828  P =  250000.      V =  0.00000      Q =  0.00000    
      OUTLET PRES =   0.2500E+06 PRES DROP =   0.8600E+06

      UOS BLOCK C3       MODEL: RADFRAC                                           TIME =   3473.98

       Convergence iterations:
         OL   ML   IL     Err/Tol
          1    5   12     0.19710E-01

      RESULTS FOR MANIPULATED VARIABLES:
      VARIABLE     FINAL VALUE    LOWER BOUND    UPPER BOUND
         1         0.88689        0.10000        0.98000    
         2          1.8685        0.10000         5.0000    

      UOS BLOCK B17      MODEL: PUMP                                              TIME =   3473.98
      VOL-FLOW   =  0.6627E-03 , DELTA P    =  0.2390E+07 , PUMP EFF   =  0.2957    
      FLUID PWR  =   1584.     , BRAKE PWR  =   5357.     , ELEC PWR   =   5357.    

      UOS BLOCK B19      MODEL: VALVE                                             TIME =   3473.98
      NO. TEMP ITER =    6     TEMP =  465.576    
      KODE = 1  NTRIAL =   2  T = 465.5756  P = 2.000000E+06  V =  0.00000      Q =  0.00000    
      OUTLET PRES =   0.2000E+07 PRES DROP =   0.5000E+06

      UOS BLOCK CSTR2    MODEL: RCSTR                                             TIME =   3473.98
      KODE = 2   NO. TEMP ITER =    1     TEMP =  423.150    
      KPHASE =    2 KODE =    2 T =  423.150     P = 2.000000E+06 Q = -68396.7    
      REACTOR DUTY =  -68396.7      VOLUME =   200.000      RES TIME =   33720.2    
      REACTOR T =   423.150      P =  2.000000E+06  V =   0.00000    

      UOS BLOCK PUMP3    MODEL: PUMP                                              TIME =   3473.98
      VOL-FLOW   =  0.5931E-02 , DELTA P    =  0.5000E+06 , PUMP EFF   =  0.5274    
      FLUID PWR  =   2966.     , BRAKE PWR  =   5623.     , ELEC PWR   =   5623.    

      UOS BLOCK B3       MODEL: VALVE                                             TIME =   3473.98
      KODE = 1  NTRIAL =  10  T = 422.4377  P =  800000.      V = 2.590939E-02  Q =  0.00000    
      OUTLET PRES =   0.8000E+06 PRES DROP =   0.1700E+07

      UOS BLOCK C1       MODEL: RADFRAC                                           TIME =   3473.98

       Convergence iterations:
         OL   ML   IL     Err/Tol
          1    3    7     0.48779E-03

      RESULTS FOR MANIPULATED VARIABLES:
      VARIABLE     FINAL VALUE    LOWER BOUND    UPPER BOUND
         1         0.15439E-02    0.27778E-03    0.55556E-02

      UOS BLOCK B9       MODEL: VALVE                                             TIME =   3473.98
      KODE = 1  NTRIAL =   5  T = 405.6308  P =  110000.      V = 0.576940      Q =  0.00000    
      OUTLET PRES =   0.1100E+06 PRES DROP =   0.6900E+06

      UOS BLOCK C2       MODEL: RADFRAC                                           TIME =   3473.98

       Convergence iterations:
         OL   ML   IL     Err/Tol
          1    5   16     0.27341E-01

      RESULTS FOR MANIPULATED VARIABLES:
      VARIABLE     FINAL VALUE    LOWER BOUND    UPPER BOUND
         1         0.11039E-01    0.27778E-03    0.41667E-01
         2         0.74681E+06    0.10000E+06    0.10000E+11

      UOS BLOCK PUMP4    MODEL: PUMP                                              TIME =   3473.98
      VOL-FLOW   =  0.1063E-02 , DELTA P    =  0.2500E+07 , PUMP EFF   =  0.2957    
      FLUID PWR  =   2657.     , BRAKE PWR  =   8986.     , ELEC PWR   =   8986.    

      UOS BLOCK B13      MODEL: VALVE                                             TIME =   3473.98
      NO. TEMP ITER =    6     TEMP =  360.776    
      KODE = 1  NTRIAL =   2  T = 360.7756  P = 2.000000E+06  V =  0.00000      Q =  0.00000    
      OUTLET PRES =   0.2000E+07 PRES DROP =   0.6100E+06

      CALCULATOR BLOCK C-1                                                        TIME =   3473.98
      ---FLASH STREAM FFB     :
      KODE = 2  NTRIAL =   1  T = 298.1500  P =  100000.      V =  0.00000      Q =  0.00000    

      UOS BLOCK PUMP1    MODEL: PUMP                                              TIME =   3473.98
      VOL-FLOW   =  0.2495E-02 , DELTA P    =  0.2400E+07 , PUMP EFF   =  0.4048    
      FLUID PWR  =   5988.     , BRAKE PWR  =  0.1479E+05 , ELEC PWR   =  0.1479E+05

      CONVERGENCE BLOCK $OLVER03  METHOD: WEGSTEIN                                TIME =   3473.98
      ITER   5 For Tear Streams: S2        C2-BOT    S14

      --FLASH TEAR STREAM S2      
      KODE = 1   NO. TEMP ITER =    1     TEMP =  301.182    
      KPHASE =    2 KODE =    1 T =  301.182     P = 2.500000E+06 Q =  0.00000    

      --FLASH TEAR STREAM C2-BOT  
      NO. TEMP ITER =    1     TEMP =  417.496    
      KODE = 1  NTRIAL =   1  T = 417.4956  P =  110000.      V =  0.00000      Q =  0.00000    

      --FLASH TEAR STREAM S14     
      NO. TEMP ITER =    6     TEMP =  360.776    
      KODE = 1  NTRIAL =   2  T = 360.7756  P = 2.000000E+06  V =  0.00000      Q =  0.00000    

  LOOP $OLVER03 ITER    5:   1 VARS NOT CONVERGED, MAX ERR/TOL     -7.8484        TIME =   3473.98

      UOS BLOCK B4       MODEL: VALVE                                             TIME =   3473.98
      NO. TEMP ITER =    6     TEMP =  301.395    
      KODE = 1  NTRIAL =   2  T = 301.3950  P = 2.000000E+06  V =  0.00000      Q =  0.00000    
      OUTLET PRES =   0.2000E+07 PRES DROP =   0.5000E+06

      UOS BLOCK B20      MODEL: MIXER                                             TIME =   3473.98
      NO. TEMP ITER =    6     TEMP =  318.989    
      KODE = 1  NTRIAL =   2  T = 318.9891  P = 2.000000E+06  V =  0.00000      Q =  0.00000    

      UOS BLOCK CSTR     MODEL: RCSTR                                             TIME =   3473.98
      KODE = 2   NO. TEMP ITER =    1     TEMP =  423.150    
      KPHASE =    2 KODE =    2 T =  423.150     P = 2.000000E+06 Q =-2.297664E+06
      REACTOR DUTY = -0.229766E+07  VOLUME =   200.000      RES TIME =   37644.6    
      REACTOR T =   423.150      P =  2.000000E+06  V =   0.00000    

      UOS BLOCK PUMP2    MODEL: PUMP                                              TIME =   3473.98
      VOL-FLOW   =  0.5313E-02 , DELTA P    =  0.1000E+07 , PUMP EFF   =  0.5128    
      FLUID PWR  =   5313.     , BRAKE PWR  =  0.1036E+05 , ELEC PWR   =  0.1036E+05

      UOS BLOCK B6       MODEL: VALVE                                             TIME =   3473.98
      NO. TEMP ITER =    4     TEMP =  424.365    
      KODE = 1  NTRIAL =   3  T = 424.3646  P = 2.000000E+06  V =  0.00000      Q =  0.00000    
      OUTLET PRES =   0.2000E+07 PRES DROP =   0.1000E+07

      UOS BLOCK PUMP5    MODEL: PUMP                                              TIME =   3473.98
      VOL-FLOW   =  0.4554E-02 , DELTA P    =  0.1000E+07 , PUMP EFF   =  0.4919    
      FLUID PWR  =   4554.     , BRAKE PWR  =   9258.     , ELEC PWR   =   9258.    

      UOS BLOCK B14      MODEL: VALVE                                             TIME =   3473.98
      NO. TEMP ITER =    4     TEMP =  418.683    
      KODE = 1  NTRIAL =   2  T = 418.6828  P =  250000.      V =  0.00000      Q =  0.00000    
      OUTLET PRES =   0.2500E+06 PRES DROP =   0.8600E+06

      UOS BLOCK C3       MODEL: RADFRAC                                           TIME =   3473.98

       Convergence iterations:
         OL   ML   IL     Err/Tol
          1    5   12     0.68471E-02

      RESULTS FOR MANIPULATED VARIABLES:
      VARIABLE     FINAL VALUE    LOWER BOUND    UPPER BOUND
         1         0.88689        0.10000        0.98000    
         2          1.8678        0.10000         5.0000    

      UOS BLOCK B17      MODEL: PUMP                                              TIME =   3473.98
      VOL-FLOW   =  0.6627E-03 , DELTA P    =  0.2390E+07 , PUMP EFF   =  0.2957    
      FLUID PWR  =   1584.     , BRAKE PWR  =   5357.     , ELEC PWR   =   5357.    

      UOS BLOCK B19      MODEL: VALVE                                             TIME =   3473.98
      NO. TEMP ITER =    6     TEMP =  465.576    
      KODE = 1  NTRIAL =   2  T = 465.5756  P = 2.000000E+06  V =  0.00000      Q =  0.00000    
      OUTLET PRES =   0.2000E+07 PRES DROP =   0.5000E+06

      UOS BLOCK CSTR2    MODEL: RCSTR                                             TIME =   3473.98
      KODE = 2   NO. TEMP ITER =    1     TEMP =  423.150    
      KPHASE =    2 KODE =    2 T =  423.150     P = 2.000000E+06 Q = -68396.7    
      REACTOR DUTY =  -68396.7      VOLUME =   200.000      RES TIME =   33720.2    
      REACTOR T =   423.150      P =  2.000000E+06  V =   0.00000    

      UOS BLOCK PUMP3    MODEL: PUMP                                              TIME =   3473.98
      VOL-FLOW   =  0.5931E-02 , DELTA P    =  0.5000E+06 , PUMP EFF   =  0.5274    
      FLUID PWR  =   2966.     , BRAKE PWR  =   5623.     , ELEC PWR   =   5623.    

      UOS BLOCK B3       MODEL: VALVE                                             TIME =   3473.98
      KODE = 1  NTRIAL =  10  T = 422.4377  P =  800000.      V = 2.590939E-02  Q =  0.00000    
      OUTLET PRES =   0.8000E+06 PRES DROP =   0.1700E+07

      UOS BLOCK C1       MODEL: RADFRAC                                           TIME =   3473.98

       Convergence iterations:
         OL   ML   IL     Err/Tol
          1    3    7     0.12743E-04

      RESULTS FOR MANIPULATED VARIABLES:
      VARIABLE     FINAL VALUE    LOWER BOUND    UPPER BOUND
         1         0.15439E-02    0.27778E-03    0.55556E-02

      UOS BLOCK B9       MODEL: VALVE                                             TIME =   3473.98
      KODE = 1  NTRIAL =   5  T = 405.6308  P =  110000.      V = 0.576940      Q =  0.00000    
      OUTLET PRES =   0.1100E+06 PRES DROP =   0.6900E+06

      UOS BLOCK C2       MODEL: RADFRAC                                           TIME =   3473.98

       Convergence iterations:
         OL   ML   IL     Err/Tol
          1    4   15     0.18946E-02

      RESULTS FOR MANIPULATED VARIABLES:
      VARIABLE     FINAL VALUE    LOWER BOUND    UPPER BOUND
         1         0.11039E-01    0.27778E-03    0.41667E-01
         2         0.74680E+06    0.10000E+06    0.10000E+11

      UOS BLOCK PUMP4    MODEL: PUMP                                              TIME =   3473.98
      VOL-FLOW   =  0.1063E-02 , DELTA P    =  0.2500E+07 , PUMP EFF   =  0.2957    
      FLUID PWR  =   2657.     , BRAKE PWR  =   8986.     , ELEC PWR   =   8986.    

      UOS BLOCK B13      MODEL: VALVE                                             TIME =   3473.98
      NO. TEMP ITER =    6     TEMP =  360.776    
      KODE = 1  NTRIAL =   2  T = 360.7756  P = 2.000000E+06  V =  0.00000      Q =  0.00000    
      OUTLET PRES =   0.2000E+07 PRES DROP =   0.6100E+06

      CALCULATOR BLOCK C-1                                                        TIME =   3473.98
      ---FLASH STREAM FFB     :
      KODE = 2  NTRIAL =   1  T = 298.1500  P =  100000.      V =  0.00000      Q =  0.00000    

      UOS BLOCK PUMP1    MODEL: PUMP                                              TIME =   3473.98
      VOL-FLOW   =  0.2495E-02 , DELTA P    =  0.2400E+07 , PUMP EFF   =  0.4048    
      FLUID PWR  =   5988.     , BRAKE PWR  =  0.1479E+05 , ELEC PWR   =  0.1479E+05

      CONVERGENCE BLOCK $OLVER03  METHOD: WEGSTEIN                                TIME =   3473.98
      ITER   6 For Tear Streams: S2        C2-BOT    S14

  LOOP $OLVER03 ITER    6:     *** CONVERGED *** , MAX ERR/TOL    -0.60203        TIME =   3473.98

      UOS BLOCK B8       MODEL: VALVE                                             TIME =   3473.98
      NO. TEMP ITER =    4     TEMP =  317.905    
      KODE = 1  NTRIAL =   4  T = 317.9053  P =  500000.      V =  1.00000      Q =  0.00000    
      OUTLET PRES =   0.5000E+06 PRES DROP =   0.3000E+06

      UOS BLOCK B16      MODEL: PUMP                                              TIME =   3473.98
      VOL-FLOW   =  0.3902E-02 , DELTA P    =  0.1000E+07 , PUMP EFF   =  0.4704    
      FLUID PWR  =   3902.     , BRAKE PWR  =   8296.     , ELEC PWR   =   8296.    

      UOS BLOCK B18      MODEL: VALVE                                             TIME =   3473.98
      NO. TEMP ITER =    4     TEMP =  415.332    
      KODE = 1  NTRIAL =   2  T = 415.3321  P =  310000.      V =  0.00000      Q =  0.00000    
      OUTLET PRES =   0.3100E+06 PRES DROP =   0.8000E+06

      GENERATING RESULTS FOR UOS BLOCK PUMP1    MODEL: PUMP                       TIME =   3473.98
      KODE = 5  NTRIAL =   3  T = 298.1500  P =  15180.1      V =  0.00000      Q = -132.056    
      VOL-FLOW   =  0.2495E-02 , DELTA P    =  0.2400E+07 , PUMP EFF   =  0.4048    
      FLUID PWR  =   5988.     , BRAKE PWR  =  0.1479E+05 , ELEC PWR   =  0.1479E+05
      NPSH AVAIL =   97.26    

      GENERATING RESULTS FOR UOS BLOCK PUMP2    MODEL: PUMP                       TIME =   3473.98
      KODE = 5  NTRIAL =   5  T = 423.1500  P = 1.639309E+06  V =  0.00000      Q = -693.423    
      VOL-FLOW   =  0.5313E-02 , DELTA P    =  0.1000E+07 , PUMP EFF   =  0.5128    
      FLUID PWR  =   5313.     , BRAKE PWR  =  0.1036E+05 , ELEC PWR   =  0.1036E+05
      NPSH AVAIL =   496.2    

      GENERATING RESULTS FOR UOS BLOCK PUMP3    MODEL: PUMP                       TIME =   3473.98
      KODE = 5  NTRIAL =   6  T = 423.1500  P = 1.390304E+06  V =  0.00000      Q = -1364.11    
      VOL-FLOW   =  0.5931E-02 , DELTA P    =  0.5000E+06 , PUMP EFF   =  0.5274    
      FLUID PWR  =   2966.     , BRAKE PWR  =   5623.     , ELEC PWR   =   5623.    
      NPSH AVAIL =   834.2    

      GENERATING RESULTS FOR UOS BLOCK PUMP4    MODEL: PUMP                       TIME =   3473.98
      KODE = 5  NTRIAL =   4  T = 355.8746  P =  110000.      V =  0.00000      Q =  0.00000    
      VOL-FLOW   =  0.1063E-02 , DELTA P    =  0.2500E+07 , PUMP EFF   =  0.2957    
      FLUID PWR  =   2657.     , BRAKE PWR  =   8986.     , ELEC PWR   =   8986.    
      NPSH AVAIL =   0.000    

      GENERATING RESULTS FOR UOS BLOCK PUMP5    MODEL: PUMP                       TIME =   3473.98
      KODE = 5  NTRIAL =   3  T = 417.4956  P =  110000.      V =  0.00000      Q = 6.747032E-02
      VOL-FLOW   =  0.4554E-02 , DELTA P    =  0.1000E+07 , PUMP EFF   =  0.4919    
      FLUID PWR  =   4554.     , BRAKE PWR  =   9258.     , ELEC PWR   =   9258.    
      NPSH AVAIL =   0.000    

      GENERATING RESULTS FOR UOS BLOCK B16      MODEL: PUMP                       TIME =   3473.98
      KODE = 5  NTRIAL =   3  T = 414.1005  P =  110000.      V =  0.00000      Q = 2.930143E-05
      VOL-FLOW   =  0.3902E-02 , DELTA P    =  0.1000E+07 , PUMP EFF   =  0.4704    
      FLUID PWR  =   3902.     , BRAKE PWR  =   8296.     , ELEC PWR   =   8296.    
      NPSH AVAIL =   0.000    

      GENERATING RESULTS FOR UOS BLOCK B17      MODEL: PUMP                       TIME =   3473.98
      KODE = 5  NTRIAL =   3  T = 461.2728  P =  110000.      V =  0.00000      Q = 5.358176E-06
      VOL-FLOW   =  0.6627E-03 , DELTA P    =  0.2390E+07 , PUMP EFF   =  0.2957    
      FLUID PWR  =   1584.     , BRAKE PWR  =   5357.     , ELEC PWR   =   5357.    
      NPSH AVAIL =   0.000    

 Report Writer entered                                                            Time =   3474.00

 Results generated                                                                Time =   3474.06

RUN SAVED



 *** SUMMARY OF ERRORS ***

                  PHYSICAL
                  PROPERTY  SYSTEM  SIMULATION
 TERMINAL ERRORS      0        0         0
   SEVERE ERRORS      0        0         1
          ERRORS      0        0        22
        WARNINGS      0        0        11


 *** SUMMARY OF ERRORS ***

                  PHYSICAL
                  PROPERTY  SYSTEM  SIMULATION
 TERMINAL ERRORS      0        0         0
   SEVERE ERRORS      0        0         1
          ERRORS      0        0        22
        WARNINGS      0        0        11

RUN SAVED



 *** SUMMARY OF ERRORS ***

                  PHYSICAL
                  PROPERTY  SYSTEM  SIMULATION
 TERMINAL ERRORS      0        0         0
   SEVERE ERRORS      0        0         1
          ERRORS      0        0        22
        WARNINGS      0        0        11


 *** SUMMARY OF ERRORS ***

                  PHYSICAL
                  PROPERTY  SYSTEM  SIMULATION
 TERMINAL ERRORS      0        0         0
   SEVERE ERRORS      0        0         1
          ERRORS      0        0        22
        WARNINGS      0        0        11

RUN SAVED



 *** SUMMARY OF ERRORS ***

                  PHYSICAL
                  PROPERTY  SYSTEM  SIMULATION
 TERMINAL ERRORS      0        0         0
   SEVERE ERRORS      0        0         1
          ERRORS      0        0        22
        WARNINGS      0        0        11


 *** SUMMARY OF ERRORS ***

                  PHYSICAL
                  PROPERTY  SYSTEM  SIMULATION
 TERMINAL ERRORS      0        0         0
   SEVERE ERRORS      0        0         1
          ERRORS      0        0        22
        WARNINGS      0        0        11

RUN SAVED



 *** SUMMARY OF ERRORS ***

                  PHYSICAL
                  PROPERTY  SYSTEM  SIMULATION
 TERMINAL ERRORS      0        0         0
   SEVERE ERRORS      0        0         1
          ERRORS      0        0        22
        WARNINGS      0        0        11


 *** SUMMARY OF ERRORS ***

                  PHYSICAL
                  PROPERTY  SYSTEM  SIMULATION
 TERMINAL ERRORS      0        0         0
   SEVERE ERRORS      0        0         1
          ERRORS      0        0        22
        WARNINGS      0        0        11

RUN SAVED



 *** SUMMARY OF ERRORS ***

                  PHYSICAL
                  PROPERTY  SYSTEM  SIMULATION
 TERMINAL ERRORS      0        0         0
   SEVERE ERRORS      0        0         1
          ERRORS      0        0        22
        WARNINGS      0        0        11


 *** SUMMARY OF ERRORS ***

                  PHYSICAL
                  PROPERTY  SYSTEM  SIMULATION
 TERMINAL ERRORS      0        0         0
   SEVERE ERRORS      0        0         1
          ERRORS      0        0        22
        WARNINGS      0        0        11

RUN SAVED



 *** SUMMARY OF ERRORS ***

                  PHYSICAL
                  PROPERTY  SYSTEM  SIMULATION
 TERMINAL ERRORS      0        0         0
   SEVERE ERRORS      0        0         1
          ERRORS      0        0        22
        WARNINGS      0        0        11


 *** SUMMARY OF ERRORS ***

                  PHYSICAL
                  PROPERTY  SYSTEM  SIMULATION
 TERMINAL ERRORS      0        0         0
   SEVERE ERRORS      0        0         1
          ERRORS      0        0        22
        WARNINGS      0        0        11

RUN SAVED



 *** SUMMARY OF ERRORS ***

                  PHYSICAL
                  PROPERTY  SYSTEM  SIMULATION
 TERMINAL ERRORS      0        0         0
   SEVERE ERRORS      0        0         1
          ERRORS      0        0        22
        WARNINGS      0        0        11


 *** SUMMARY OF ERRORS ***

                  PHYSICAL
                  PROPERTY  SYSTEM  SIMULATION
 TERMINAL ERRORS      0        0         0
   SEVERE ERRORS      0        0         1
          ERRORS      0        0        22
        WARNINGS      0        0        11

RUN SAVED



 *** SUMMARY OF ERRORS ***

                  PHYSICAL
                  PROPERTY  SYSTEM  SIMULATION
 TERMINAL ERRORS      0        0         0
   SEVERE ERRORS      0        0         1
          ERRORS      0        0        22
        WARNINGS      0        0        11
